# generated using pymatgen
data_Li3PS4
_symmetry_space_group_name_H-M   P1
_cell_length_a   5.96120251
_cell_length_b   6.06668104
_cell_length_c   9.49243491
_cell_angle_alpha   101.37036934
_cell_angle_beta   97.21656012
_cell_angle_gamma   118.24453211
_symmetry_Int_Tables_number   1
_chemical_formula_structural   Li3PS4
_chemical_formula_sum   'Li6 P2 S8'
_cell_volume   286.79901178
_cell_formula_units_Z   2
loop_
 _symmetry_equiv_pos_site_id
 _symmetry_equiv_pos_as_xyz
  1  'x, y, z'
loop_
 _atom_site_type_symbol
 _atom_site_label
 _atom_site_symmetry_multiplicity
 _atom_site_fract_x
 _atom_site_fract_y
 _atom_site_fract_z
 _atom_site_occupancy
  Li  Li0  1  0.15093829  0.13147335  0.66094158  1
  Li  Li1  1  0.15322325  0.56274469  0.53786934  1
  Li  Li2  1  0.24046465  0.45708076  0.25388448  1
  Li  Li3  1  0.50188856  0.08814665  0.26193615  1
  Li  Li4  1  0.73610040  0.36102331  0.95188293  1
  Li  Li5  1  0.98892122  0.88433583  0.94720835  1
  P  P6  1  0.26708451  0.63625918  0.85759307  1
  P  P7  1  0.88841063  0.90537332  0.32436574  1
  S  S8  1  0.18894545  0.65869551  0.06305104  1
  S  S9  1  0.25796614  0.20445664  0.44060371  1
  S  S10  1  0.33870531  0.98203901  0.82095094  1
  S  S11  1  0.54914514  0.56251762  0.80344732  1
  S  S12  1  0.60695268  0.88385590  0.42828226  1
  S  S13  1  0.83622564  0.01879209  0.14008864  1
  S  S14  1  0.87313552  0.55297047  0.29161148  1
  S  S15  1  0.92276413  0.34757062  0.71381249  1
