# generated using pymatgen
data_Li3PS4
_symmetry_space_group_name_H-M   P1
_cell_length_a   5.81868601
_cell_length_b   5.90207018
_cell_length_c   9.95505902
_cell_angle_alpha   76.77309173
_cell_angle_beta   73.20383536
_cell_angle_gamma   60.67694005
_symmetry_Int_Tables_number   1
_chemical_formula_structural   Li3PS4
_chemical_formula_sum   'Li6 P2 S8'
_cell_volume   283.79426919
_cell_formula_units_Z   2
loop_
 _symmetry_equiv_pos_site_id
 _symmetry_equiv_pos_as_xyz
  1  'x, y, z'
loop_
 _atom_site_type_symbol
 _atom_site_label
 _atom_site_symmetry_multiplicity
 _atom_site_fract_x
 _atom_site_fract_y
 _atom_site_fract_z
 _atom_site_occupancy
  Li  Li0  1  0.10247216  0.30147859  0.49266161  1
  Li  Li1  1  0.39567524  0.64796308  0.30947780  1
  Li  Li2  1  0.42978929  0.76145336  0.67126484  1
  Li  Li3  1  0.50027841  0.77601747  0.96583614  1
  Li  Li4  1  0.72468947  0.04291833  0.24525337  1
  Li  Li5  1  0.79562481  0.13084958  0.92869053  1
  P  P6  1  0.08818952  0.43029027  0.11473904  1
  P  P7  1  0.45782687  0.27953483  0.63547190  1
  S  S8  1  0.15994721  0.66931836  0.94678817  1
  S  S9  1  0.18739779  0.63711756  0.56623095  1
  S  S10  1  0.27532878  0.12178730  0.80755285  1
  S  S11  1  0.40351945  0.06100186  0.13322682  1
  S  S12  1  0.58594560  0.02947104  0.48817567  1
  S  S13  1  0.75410040  0.39986790  0.10654736  1
  S  S14  1  0.76075091  0.29773284  0.68733837  1
  S  S15  1  0.99732375  0.59541123  0.29314491  1
