# generated using pymatgen
data_Li3PS4
_symmetry_space_group_name_H-M   P1
_cell_length_a   5.97984356
_cell_length_b   6.03182385
_cell_length_c   8.61032876
_cell_angle_alpha   98.94151022
_cell_angle_beta   92.31497187
_cell_angle_gamma   109.47583136
_symmetry_Int_Tables_number   1
_chemical_formula_structural   Li3PS4
_chemical_formula_sum   'Li6 P2 S8'
_cell_volume   287.81947359
_cell_formula_units_Z   2
loop_
 _symmetry_equiv_pos_site_id
 _symmetry_equiv_pos_as_xyz
  1  'x, y, z'
loop_
 _atom_site_type_symbol
 _atom_site_label
 _atom_site_symmetry_multiplicity
 _atom_site_fract_x
 _atom_site_fract_y
 _atom_site_fract_z
 _atom_site_occupancy
  Li  Li0  1  0.11851172  0.63297184  0.53676179  1
  Li  Li1  1  0.20073695  0.52162007  0.01630714  1
  Li  Li2  1  0.42857033  0.00657258  0.32997221  1
  Li  Li3  1  0.69659781  0.57687013  0.88717230  1
  Li  Li4  1  0.85300728  0.12522490  0.15273657  1
  Li  Li5  1  0.88443791  0.02538759  0.68122133  1
  P  P6  1  0.33244615  0.09992810  0.90448470  1
  P  P7  1  0.72843629  0.69132780  0.36146208  1
  S  S8  1  0.04411779  0.96034186  0.43204978  1
  S  S9  1  0.10716944  0.75964089  0.81348008  1
  S  S10  1  0.25123135  0.16979543  0.12754719  1
  S  S11  1  0.28535725  0.33335637  0.77312127  1
  S  S12  1  0.52363219  0.75979312  0.53018724  1
  S  S13  1  0.59706730  0.74057897  0.14893029  1
  S  S14  1  0.69228886  0.15523384  0.90616775  1
  S  S15  1  0.78313114  0.37687579  0.37270448  1
