# generated using pymatgen
data_Li3PS4
_symmetry_space_group_name_H-M   P1
_cell_length_a   5.95074282
_cell_length_b   6.03668591
_cell_length_c   9.93042107
_cell_angle_alpha   94.22674457
_cell_angle_beta   102.54241770
_cell_angle_gamma   119.47083274
_symmetry_Int_Tables_number   1
_chemical_formula_structural   Li3PS4
_chemical_formula_sum   'Li6 P2 S8'
_cell_volume   296.23791628
_cell_formula_units_Z   2
loop_
 _symmetry_equiv_pos_site_id
 _symmetry_equiv_pos_as_xyz
  1  'x, y, z'
loop_
 _atom_site_type_symbol
 _atom_site_label
 _atom_site_symmetry_multiplicity
 _atom_site_fract_x
 _atom_site_fract_y
 _atom_site_fract_z
 _atom_site_occupancy
  Li  Li0  1  0.13889515  0.84632407  0.52035482  1
  Li  Li1  1  0.17394930  0.76341399  0.22225468  1
  Li  Li2  1  0.45102062  0.11242283  0.90924537  1
  Li  Li3  1  0.49887152  0.53887050  0.39682854  1
  Li  Li4  1  0.92814949  0.99540771  0.07552907  1
  Li  Li5  1  0.97786632  0.43807195  0.78699525  1
  P  P6  1  0.73005664  0.75403684  0.78923711  1
  P  P7  1  0.74566457  0.12440216  0.29720216  1
  S  S8  1  0.05235892  0.12587373  0.86939996  1
  S  S9  1  0.10010750  0.12298492  0.32816087  1
  S  S10  1  0.37990781  0.75772910  0.73904259  1
  S  S11  1  0.50229067  0.90444287  0.10134702  1
  S  S12  1  0.56848837  0.96197112  0.44419944  1
  S  S13  1  0.75408502  0.57056486  0.61963178  1
  S  S14  1  0.77100307  0.56679793  0.94943984  1
  S  S15  1  0.82239023  0.49329029  0.30610219  1
