# generated using pymatgen
data_Li3PS4
_symmetry_space_group_name_H-M   P1
_cell_length_a   5.92361031
_cell_length_b   5.94181169
_cell_length_c   10.00266728
_cell_angle_alpha   103.65767631
_cell_angle_beta   93.55011848
_cell_angle_gamma   119.69828796
_symmetry_Int_Tables_number   1
_chemical_formula_structural   Li3PS4
_chemical_formula_sum   'Li6 P2 S8'
_cell_volume   290.41984043
_cell_formula_units_Z   2
loop_
 _symmetry_equiv_pos_site_id
 _symmetry_equiv_pos_as_xyz
  1  'x, y, z'
loop_
 _atom_site_type_symbol
 _atom_site_label
 _atom_site_symmetry_multiplicity
 _atom_site_fract_x
 _atom_site_fract_y
 _atom_site_fract_z
 _atom_site_occupancy
  Li  Li0  1  0.02807657  0.70651924  0.41575979  1
  Li  Li1  1  0.22671744  0.94049906  0.78609276  1
  Li  Li2  1  0.59848449  0.51330215  0.69515001  1
  Li  Li3  1  0.61341073  0.99067928  0.29689936  1
  Li  Li4  1  0.77466425  0.57927232  0.11598196  1
  Li  Li5  1  0.87042986  0.17341662  0.93890979  1
  P  P6  1  0.25848276  0.27392089  0.18231732  1
  P  P7  1  0.86839492  0.22301998  0.66834669  1
  S  S8  1  0.15315288  0.13920013  0.62025891  1
  S  S9  1  0.20408769  0.92411648  0.20848655  1
  S  S10  1  0.33888646  0.30327811  0.98957111  1
  S  S11  1  0.56025637  0.59975133  0.33400851  1
  S  S12  1  0.57012152  0.89214479  0.71066105  1
  S  S13  1  0.73853111  0.32111701  0.51290794  1
  S  S14  1  0.91030658  0.27211203  0.18438658  1
  S  S15  1  0.97731507  0.54093267  0.84641034  1
