# generated using pymatgen
data_Li3PS4
_symmetry_space_group_name_H-M   P1
_cell_length_a   5.89884169
_cell_length_b   6.08557565
_cell_length_c   8.90331394
_cell_angle_alpha   77.38292253
_cell_angle_beta   80.06608304
_cell_angle_gamma   63.71300626
_symmetry_Int_Tables_number   1
_chemical_formula_structural   Li3PS4
_chemical_formula_sum   'Li6 P2 S8'
_cell_volume   278.58739911
_cell_formula_units_Z   2
loop_
 _symmetry_equiv_pos_site_id
 _symmetry_equiv_pos_as_xyz
  1  'x, y, z'
loop_
 _atom_site_type_symbol
 _atom_site_label
 _atom_site_symmetry_multiplicity
 _atom_site_fract_x
 _atom_site_fract_y
 _atom_site_fract_z
 _atom_site_occupancy
  Li  Li0  1  0.12299899  0.59534525  0.97378408  1
  Li  Li1  1  0.39779870  0.69660871  0.23820622  1
  Li  Li2  1  0.41573175  0.51884257  0.62181987  1
  Li  Li3  1  0.68006886  0.96818095  0.53053212  1
  Li  Li4  1  0.71322667  0.24158041  0.15140495  1
  Li  Li5  1  0.91995666  0.25909514  0.78186248  1
  P  P6  1  0.42616715  0.93299904  0.88084773  1
  P  P7  1  0.92166864  0.54151513  0.37362827  1
  S  S8  1  0.00722732  0.57275442  0.57861753  1
  S  S9  1  0.11933912  0.96747186  0.03419230  1
  S  S10  1  0.22314421  0.38486660  0.22736709  1
  S  S11  1  0.31967991  0.92892478  0.67645058  1
  S  S12  1  0.50874364  0.23229432  0.86858312  1
  S  S13  1  0.65666228  0.88171905  0.28824416  1
  S  S14  1  0.70854250  0.34161934  0.41124156  1
  S  S15  1  0.71932478  0.60529426  0.95699171  1
