# generated using pymatgen
data_Li3PS4
_symmetry_space_group_name_H-M   P1
_cell_length_a   5.91945539
_cell_length_b   6.14264409
_cell_length_c   8.66179804
_cell_angle_alpha   87.82760500
_cell_angle_beta   74.79641510
_cell_angle_gamma   63.86980479
_symmetry_Int_Tables_number   1
_chemical_formula_structural   Li3PS4
_chemical_formula_sum   'Li6 P2 S8'
_cell_volume   271.76984037
_cell_formula_units_Z   2
loop_
 _symmetry_equiv_pos_site_id
 _symmetry_equiv_pos_as_xyz
  1  'x, y, z'
loop_
 _atom_site_type_symbol
 _atom_site_label
 _atom_site_symmetry_multiplicity
 _atom_site_fract_x
 _atom_site_fract_y
 _atom_site_fract_z
 _atom_site_occupancy
  Li  Li0  1  0.16493141  0.83312274  0.01927013  1
  Li  Li1  1  0.25618661  0.46330207  0.21668160  1
  Li  Li2  1  0.32626646  0.97647577  0.48096362  1
  Li  Li3  1  0.73162781  0.43624228  0.33664743  1
  Li  Li4  1  0.85647960  0.71091075  0.71765597  1
  Li  Li5  1  0.96773585  0.25546232  0.84410937  1
  P  P6  1  0.42322660  0.55726086  0.68438717  1
  P  P7  1  0.60681031  0.86782581  0.13199225  1
  S  S8  1  0.21878101  0.09391086  0.22968872  1
  S  S9  1  0.22183982  0.45247028  0.87014943  1
  S  S10  1  0.26517838  0.60289432  0.49454546  1
  S  S11  1  0.39060514  0.89314761  0.74679484  1
  S  S12  1  0.62046647  0.54076467  0.06974936  1
  S  S13  1  0.75024282  0.01076168  0.94405062  1
  S  S14  1  0.79926522  0.81359819  0.30508514  1
  S  S15  1  0.81358158  0.33338241  0.60693561  1
