# generated using pymatgen
data_Li3PS4
_symmetry_space_group_name_H-M   P1
_cell_length_a   6.18494642
_cell_length_b   6.52969034
_cell_length_c   6.86331895
_cell_angle_alpha   89.29715869
_cell_angle_beta   86.48565108
_cell_angle_gamma   88.69153070
_symmetry_Int_Tables_number   1
_chemical_formula_structural   Li3PS4
_chemical_formula_sum   'Li6 P2 S8'
_cell_volume   276.57073684
_cell_formula_units_Z   2
loop_
 _symmetry_equiv_pos_site_id
 _symmetry_equiv_pos_as_xyz
  1  'x, y, z'
loop_
 _atom_site_type_symbol
 _atom_site_label
 _atom_site_symmetry_multiplicity
 _atom_site_fract_x
 _atom_site_fract_y
 _atom_site_fract_z
 _atom_site_occupancy
  Li  Li0  1  0.31940456  0.12133708  0.73998796  1
  Li  Li1  1  0.34247250  0.50149922  0.97882999  1
  Li  Li2  1  0.40130359  0.53638538  0.42635952  1
  Li  Li3  1  0.66115813  0.82882393  0.89538059  1
  Li  Li4  1  0.87255123  0.13299161  0.24399719  1
  Li  Li5  1  0.87805336  0.74254778  0.50082045  1
  P  P6  1  0.40643196  0.95320319  0.22730823  1
  P  P7  1  0.85068353  0.32688146  0.68902326  1
  S  S8  1  0.02438167  0.32129622  0.92684362  1
  S  S9  1  0.03214186  0.39747321  0.44311596  1
  S  S10  1  0.22863390  0.89864909  0.47874350  1
  S  S11  1  0.24753768  0.85582851  0.99686177  1
  S  S12  1  0.50260683  0.24924269  0.18828365  1
  S  S13  1  0.59953439  0.54086776  0.71098618  1
  S  S14  1  0.68207060  0.76953478  0.22153733  1
  S  S15  1  0.70315603  0.05887249  0.64130805  1
