# generated using pymatgen
data_Li3PS4
_symmetry_space_group_name_H-M   P1
_cell_length_a   6.41214771
_cell_length_b   6.57076728
_cell_length_c   6.66075065
_cell_angle_alpha   82.49990696
_cell_angle_beta   88.00439822
_cell_angle_gamma   88.76907255
_symmetry_Int_Tables_number   1
_chemical_formula_structural   Li3PS4
_chemical_formula_sum   'Li6 P2 S8'
_cell_volume   278.02530135
_cell_formula_units_Z   2
loop_
 _symmetry_equiv_pos_site_id
 _symmetry_equiv_pos_as_xyz
  1  'x, y, z'
loop_
 _atom_site_type_symbol
 _atom_site_label
 _atom_site_symmetry_multiplicity
 _atom_site_fract_x
 _atom_site_fract_y
 _atom_site_fract_z
 _atom_site_occupancy
  Li  Li0  1  0.15623076  0.26801141  0.76517123  1
  Li  Li1  1  0.50174422  0.95688228  0.23677627  1
  Li  Li2  1  0.55362640  0.38917565  0.02669096  1
  Li  Li3  1  0.58765530  0.24041636  0.56283582  1
  Li  Li4  1  0.77690597  0.79593989  0.71793139  1
  Li  Li5  1  0.99383945  0.70624475  0.22800991  1
  P  P6  1  0.34132402  0.79831954  0.91391371  1
  P  P7  1  0.98543939  0.24730398  0.33408731  1
  S  S8  1  0.04949909  0.91565919  0.89426962  1
  S  S9  1  0.28178946  0.16225947  0.40220173  1
  S  S10  1  0.37477939  0.64457109  0.19702186  1
  S  S11  1  0.44643535  0.61145115  0.71020925  1
  S  S12  1  0.54404041  0.04533287  0.88449264  1
  S  S13  1  0.81097384  0.98580993  0.39119977  1
  S  S14  1  0.88678727  0.44123863  0.53422564  1
  S  S15  1  0.93783035  0.39003484  0.05116668  1
