# generated using pymatgen
data_Li3PS4
_symmetry_space_group_name_H-M   P1
_cell_length_a   5.91627775
_cell_length_b   5.98162887
_cell_length_c   7.81359024
_cell_angle_alpha   91.27509625
_cell_angle_beta   90.55347473
_cell_angle_gamma   108.38386808
_symmetry_Int_Tables_number   1
_chemical_formula_structural   Li3PS4
_chemical_formula_sum   'Li6 P2 S8'
_cell_volume   262.29747225
_cell_formula_units_Z   2
loop_
 _symmetry_equiv_pos_site_id
 _symmetry_equiv_pos_as_xyz
  1  'x, y, z'
loop_
 _atom_site_type_symbol
 _atom_site_label
 _atom_site_symmetry_multiplicity
 _atom_site_fract_x
 _atom_site_fract_y
 _atom_site_fract_z
 _atom_site_occupancy
  Li  Li0  1  0.16504395  0.40455757  0.59895598  1
  Li  Li1  1  0.17017533  0.41382816  0.13070909  1
  Li  Li2  1  0.30216830  0.02426661  0.35432769  1
  Li  Li3  1  0.66120209  0.92318136  0.65238013  1
  Li  Li4  1  0.68746215  0.95048499  0.07497082  1
  Li  Li5  1  0.74968938  0.49819521  0.86586841  1
  P  P6  1  0.29412282  0.06330007  0.86279350  1
  P  P7  1  0.80430774  0.77486043  0.36252284  1
  S  S8  1  0.32417871  0.72922651  0.86355722  1
  S  S9  1  0.44102889  0.67573096  0.36713145  1
  S  S10  1  0.47615430  0.23011311  0.65615040  1
  S  S11  1  0.47640893  0.23628346  0.07463529  1
  S  S12  1  0.90704486  0.13863716  0.36435580  1
  S  S13  1  0.94810045  0.68749100  0.57565628  1
  S  S14  1  0.94896933  0.69242790  0.14565725  1
  S  S15  1  0.97300881  0.13223455  0.86059637  1
