# generated using pymatgen
data_Li3PS4
_symmetry_space_group_name_H-M   P1
_cell_length_a   6.12232865
_cell_length_b   6.42441103
_cell_length_c   6.91187112
_cell_angle_alpha   90.76001365
_cell_angle_beta   92.04205739
_cell_angle_gamma   92.44278082
_symmetry_Int_Tables_number   1
_chemical_formula_structural   Li3PS4
_chemical_formula_sum   'Li6 P2 S8'
_cell_volume   271.41088526
_cell_formula_units_Z   2
loop_
 _symmetry_equiv_pos_site_id
 _symmetry_equiv_pos_as_xyz
  1  'x, y, z'
loop_
 _atom_site_type_symbol
 _atom_site_label
 _atom_site_symmetry_multiplicity
 _atom_site_fract_x
 _atom_site_fract_y
 _atom_site_fract_z
 _atom_site_occupancy
  Li  Li0  1  0.09095938  0.31688833  0.12549787  1
  Li  Li1  1  0.18892676  0.78251728  0.62919528  1
  Li  Li2  1  0.48567042  0.21592448  0.91809350  1
  Li  Li3  1  0.51644703  0.33271357  0.45099934  1
  Li  Li4  1  0.77747920  0.85952458  0.89554513  1
  Li  Li5  1  0.90669703  0.74409456  0.28210134  1
  P  P6  1  0.32759686  0.90438539  0.21148108  1
  P  P7  1  0.88611661  0.43359927  0.76857598  1
  S  S8  1  0.16751494  0.97034990  0.95550378  1
  S  S9  1  0.18337093  0.08485901  0.41098175  1
  S  S10  1  0.21646800  0.45507457  0.78643283  1
  S  S11  1  0.27872197  0.60773777  0.30551999  1
  S  S12  1  0.64321534  0.00786491  0.19370259  1
  S  S13  1  0.75208575  0.15524170  0.67468477  1
  S  S14  1  0.75631783  0.49466635  0.03217147  1
  S  S15  1  0.76999866  0.65791880  0.59053956  1
