# generated using pymatgen
data_Li3PS4
_symmetry_space_group_name_H-M   P1
_cell_length_a   5.75056236
_cell_length_b   5.78220568
_cell_length_c   8.91228199
_cell_angle_alpha   89.71763302
_cell_angle_beta   88.63189729
_cell_angle_gamma   65.89357684
_symmetry_Int_Tables_number   1
_chemical_formula_structural   Li3PS4
_chemical_formula_sum   'Li6 P2 S8'
_cell_volume   270.41638155
_cell_formula_units_Z   2
loop_
 _symmetry_equiv_pos_site_id
 _symmetry_equiv_pos_as_xyz
  1  'x, y, z'
loop_
 _atom_site_type_symbol
 _atom_site_label
 _atom_site_symmetry_multiplicity
 _atom_site_fract_x
 _atom_site_fract_y
 _atom_site_fract_z
 _atom_site_occupancy
  Li  Li0  1  0.24582849  0.68890995  0.82521097  1
  Li  Li1  1  0.48465736  0.98884563  0.70998634  1
  Li  Li2  1  0.54979927  0.17649377  0.11660596  1
  Li  Li3  1  0.72376283  0.23090396  0.43827818  1
  Li  Li4  1  0.95233657  0.55289785  0.16359457  1
  Li  Li5  1  0.97107916  0.60501974  0.52549403  1
  P  P6  1  0.27300626  0.85141462  0.36636444  1
  P  P7  1  0.82329887  0.34319258  0.85708780  1
  S  S8  1  0.03232846  0.09517223  0.22021673  1
  S  S9  1  0.10872394  0.94639535  0.57566071  1
  S  S10  1  0.18824214  0.30945185  0.87729171  1
  S  S11  1  0.30296989  0.48806986  0.33272110  1
  S  S12  1  0.59314665  0.57275357  0.01913433  1
  S  S13  1  0.62374906  0.86523050  0.34860962  1
  S  S14  1  0.65539899  0.51580941  0.66225812  1
  S  S15  1  0.81221304  0.99568811  0.87979555  1
