# generated using pymatgen
data_Li3PS4
_symmetry_space_group_name_H-M   Pm
_cell_length_a   5.90100639
_cell_length_b   7.78437154
_cell_length_c   5.98430889
_cell_angle_alpha   90.00000000
_cell_angle_beta   108.21007593
_cell_angle_gamma   90.00000000
_symmetry_Int_Tables_number   6
_chemical_formula_structural   Li3PS4
_chemical_formula_sum   'Li6 P2 S8'
_cell_volume   261.12554137
_cell_formula_units_Z   2
loop_
 _symmetry_equiv_pos_site_id
 _symmetry_equiv_pos_as_xyz
  1  'x, y, z'
  2  'x, -y, z'
loop_
 _atom_site_type_symbol
 _atom_site_label
 _atom_site_symmetry_multiplicity
 _atom_site_fract_x
 _atom_site_fract_y
 _atom_site_fract_z
 _atom_site_occupancy
  Li  Li0  2  0.18676461  0.26939694  0.39802039  1
  Li  Li1  2  0.69894276  0.21025917  0.93341070  1
  Li  Li2  1  0.32996339  0.50000000  0.02285846  1
  Li  Li3  1  0.79553945  0.00000000  0.48336371  1
  P  P4  1  0.32030985  0.00000000  0.06447973  1
  P  P5  1  0.83215044  0.50000000  0.77391451  1
  S  S6  2  0.50249764  0.20917034  0.23119587  1
  S  S7  2  0.97722747  0.28478692  0.69086782  1
  S  S8  1  0.34806415  0.00000000  0.73002047  1
  S  S9  1  0.46843437  0.50000000  0.67507890  1
  S  S10  1  0.93205243  0.50000000  0.13662653  1
  S  S11  1  0.99706592  0.00000000  0.13059394  1
