# generated using pymatgen
data_Li3PS4
_symmetry_space_group_name_H-M   P1
_cell_length_a   5.77449432
_cell_length_b   5.94380536
_cell_length_c   9.73225191
_cell_angle_alpha   77.80872277
_cell_angle_beta   73.23917270
_cell_angle_gamma   61.53235517
_symmetry_Int_Tables_number   1
_chemical_formula_structural   Li3PS4
_chemical_formula_sum   'Li6 P2 S8'
_cell_volume   280.09025439
_cell_formula_units_Z   2
loop_
 _symmetry_equiv_pos_site_id
 _symmetry_equiv_pos_as_xyz
  1  'x, y, z'
loop_
 _atom_site_type_symbol
 _atom_site_label
 _atom_site_symmetry_multiplicity
 _atom_site_fract_x
 _atom_site_fract_y
 _atom_site_fract_z
 _atom_site_occupancy
  Li  Li0  1  0.16062394  0.37268002  0.22636096  1
  Li  Li1  1  0.24057425  0.03769287  0.64803118  1
  Li  Li2  1  0.39757763  0.60389813  0.50843438  1
  Li  Li3  1  0.44937789  0.76998202  0.13786430  1
  Li  Li4  1  0.71272475  0.63936057  0.77493480  1
  Li  Li5  1  0.91221261  0.01244105  0.93668765  1
  P  P6  1  0.42151988  0.34119576  0.83052114  1
  P  P7  1  0.78411067  0.99314091  0.33755102  1
  S  S8  1  0.11343264  0.66698218  0.76028242  1
  S  S9  1  0.13580926  0.98997257  0.34668050  1
  S  S10  1  0.33399125  0.03263159  0.88692831  1
  S  S11  1  0.49578098  0.36257542  0.32433073  1
  S  S12  1  0.51092046  0.39775439  0.00197476  1
  S  S13  1  0.68847613  0.77741298  0.51425741  1
  S  S14  1  0.74271993  0.26319427  0.66368650  1
  S  S15  1  0.85271246  0.80065380  0.16674954  1
