# generated using pymatgen
data_Li3PS4
_symmetry_space_group_name_H-M   P1
_cell_length_a   5.77193168
_cell_length_b   5.94669965
_cell_length_c   9.63081612
_cell_angle_alpha   79.09482644
_cell_angle_beta   73.20664301
_cell_angle_gamma   61.51679048
_symmetry_Int_Tables_number   1
_chemical_formula_structural   Li3PS4
_chemical_formula_sum   'Li6 P2 S8'
_cell_volume   277.64401285
_cell_formula_units_Z   2
loop_
 _symmetry_equiv_pos_site_id
 _symmetry_equiv_pos_as_xyz
  1  'x, y, z'
loop_
 _atom_site_type_symbol
 _atom_site_label
 _atom_site_symmetry_multiplicity
 _atom_site_fract_x
 _atom_site_fract_y
 _atom_site_fract_z
 _atom_site_occupancy
  Li  Li0  1  0.12644486  0.29744479  0.74901031  1
  Li  Li1  1  0.39071779  0.15834312  0.38763332  1
  Li  Li2  1  0.56651413  0.32163722  0.00724542  1
  Li  Li3  1  0.77386148  0.55698410  0.32351812  1
  Li  Li4  1  0.87806564  0.92519762  0.61349934  1
  Li  Li5  1  0.97367246  0.71046067  0.99183628  1
  P  P6  1  0.14302033  0.92152551  0.18711998  1
  P  P7  1  0.60197861  0.60552407  0.69392292  1
  S  S8  1  0.02680669  0.09003099  0.00029519  1
  S  S9  1  0.20456762  0.54802727  0.19637372  1
  S  S10  1  0.29475910  0.91306100  0.61918663  1
  S  S11  1  0.50052331  0.92067741  0.18300930  1
  S  S12  1  0.52838195  0.29474481  0.76529395  1
  S  S13  1  0.67732609  0.68857107  0.86489486  1
  S  S14  1  0.85411259  0.11713206  0.35923771  1
  S  S15  1  0.93916366  0.52964760  0.53157378  1
