# generated using pymatgen
data_Li3PS4
_symmetry_space_group_name_H-M   P1
_cell_length_a   5.97285319
_cell_length_b   6.29104190
_cell_length_c   8.53622256
_cell_angle_alpha   89.55610417
_cell_angle_beta   75.49011854
_cell_angle_gamma   63.62756811
_symmetry_Int_Tables_number   1
_chemical_formula_structural   Li3PS4
_chemical_formula_sum   'Li6 P2 S8'
_cell_volume   276.21496223
_cell_formula_units_Z   2
loop_
 _symmetry_equiv_pos_site_id
 _symmetry_equiv_pos_as_xyz
  1  'x, y, z'
loop_
 _atom_site_type_symbol
 _atom_site_label
 _atom_site_symmetry_multiplicity
 _atom_site_fract_x
 _atom_site_fract_y
 _atom_site_fract_z
 _atom_site_occupancy
  Li  Li0  1  0.14260289  0.85024044  0.04044939  1
  Li  Li1  1  0.31872086  0.38876974  0.12244428  1
  Li  Li2  1  0.33002143  0.96463244  0.48932652  1
  Li  Li3  1  0.73458580  0.44626865  0.33671410  1
  Li  Li4  1  0.85370699  0.71055390  0.71981494  1
  Li  Li5  1  0.97303973  0.25344970  0.84483065  1
  P  P6  1  0.41886835  0.56694835  0.68742202  1
  P  P7  1  0.60297286  0.86991959  0.14107783  1
  S  S8  1  0.19768507  0.47837711  0.87094448  1
  S  S9  1  0.21568913  0.08932598  0.24275261  1
  S  S10  1  0.27205737  0.59929745  0.49389860  1
  S  S11  1  0.38574586  0.89445882  0.76000690  1
  S  S12  1  0.62951568  0.54691902  0.06774679  1
  S  S13  1  0.72747740  0.03207806  0.95891265  1
  S  S14  1  0.80463783  0.80841737  0.30939696  1
  S  S15  1  0.80589784  0.34187600  0.61296801  1
