# generated using pymatgen
data_Li3PS4
_symmetry_space_group_name_H-M   P1
_cell_length_a   5.86850187
_cell_length_b   5.94347815
_cell_length_c   9.82068913
_cell_angle_alpha   74.09548175
_cell_angle_beta   88.45214440
_cell_angle_gamma   61.08827033
_symmetry_Int_Tables_number   1
_chemical_formula_structural   Li3PS4
_chemical_formula_sum   'Li6 P2 S8'
_cell_volume   286.09634202
_cell_formula_units_Z   2
loop_
 _symmetry_equiv_pos_site_id
 _symmetry_equiv_pos_as_xyz
  1  'x, y, z'
loop_
 _atom_site_type_symbol
 _atom_site_label
 _atom_site_symmetry_multiplicity
 _atom_site_fract_x
 _atom_site_fract_y
 _atom_site_fract_z
 _atom_site_occupancy
  Li  Li0  1  0.27729494  0.91687947  0.29957164  1
  Li  Li1  1  0.34163508  0.96200882  0.99202144  1
  Li  Li2  1  0.60828141  0.27839631  0.42306069  1
  Li  Li3  1  0.61879466  0.35956933  0.05372682  1
  Li  Li4  1  0.75578956  0.09018414  0.79233669  1
  Li  Li5  1  0.94345272  0.55498296  0.61588764  1
  P  P6  1  0.00308320  0.60120111  0.18471499  1
  P  P7  1  0.36825384  0.88360581  0.66601338  1
  S  S8  1  0.00893650  0.92995356  0.61981887  1
  S  S9  1  0.12424773  0.60805230  0.37335623  1
  S  S10  1  0.27478023  0.28192354  0.12623862  1
  S  S11  1  0.32826020  0.18038801  0.74722916  1
  S  S12  1  0.53791031  0.89104889  0.48328726  1
  S  S13  1  0.63878398  0.53319854  0.80912220  1
  S  S14  1  0.65790344  0.58884166  0.20291398  1
  S  S15  1  0.94370307  0.94292101  0.03223388  1
