# generated using pymatgen
data_Li3PS4
_symmetry_space_group_name_H-M   P1
_cell_length_a   6.12770663
_cell_length_b   6.49361709
_cell_length_c   6.86438364
_cell_angle_alpha   89.97485174
_cell_angle_beta   89.84251398
_cell_angle_gamma   88.27487396
_symmetry_Int_Tables_number   1
_chemical_formula_structural   Li3PS4
_chemical_formula_sum   'Li6 P2 S8'
_cell_volume   273.01570756
_cell_formula_units_Z   2
loop_
 _symmetry_equiv_pos_site_id
 _symmetry_equiv_pos_as_xyz
  1  'x, y, z'
loop_
 _atom_site_type_symbol
 _atom_site_label
 _atom_site_symmetry_multiplicity
 _atom_site_fract_x
 _atom_site_fract_y
 _atom_site_fract_z
 _atom_site_occupancy
  Li  Li0  1  0.15406205  0.10917600  0.02668375  1
  Li  Li1  1  0.36836241  0.54940472  0.49647100  1
  Li  Li2  1  0.48861948  0.99356522  0.41559563  1
  Li  Li3  1  0.63565683  0.28174996  0.86990221  1
  Li  Li4  1  0.89594500  0.75886791  0.20500969  1
  Li  Li5  1  0.95423557  0.72574627  0.68441044  1
  P  P6  1  0.39691069  0.67270075  0.92841278  1
  P  P7  1  0.89195265  0.24949538  0.39772956  1
  S  S8  1  0.21595359  0.26240213  0.34534734  1
  S  S9  1  0.26216588  0.41107799  0.82725721  1
  S  S10  1  0.28165317  0.77391635  0.19238566  1
  S  S11  1  0.29866812  0.89027613  0.73041256  1
  S  S12  1  0.72488367  0.62244629  0.93943536  1
  S  S13  1  0.75920904  0.10414056  0.16111930  1
  S  S14  1  0.76299621  0.53779833  0.44347930  1
  S  S15  1  0.79745983  0.07232354  0.62486431  1
