# generated using pymatgen
data_Li3PS4
_symmetry_space_group_name_H-M   P1
_cell_length_a   5.68794602
_cell_length_b   5.88165884
_cell_length_c   9.93779046
_cell_angle_alpha   78.63841150
_cell_angle_beta   76.43524543
_cell_angle_gamma   62.41438404
_symmetry_Int_Tables_number   1
_chemical_formula_structural   Li3PS4
_chemical_formula_sum   'Li6 P2 S8'
_cell_volume   284.93880100
_cell_formula_units_Z   2
loop_
 _symmetry_equiv_pos_site_id
 _symmetry_equiv_pos_as_xyz
  1  'x, y, z'
loop_
 _atom_site_type_symbol
 _atom_site_label
 _atom_site_symmetry_multiplicity
 _atom_site_fract_x
 _atom_site_fract_y
 _atom_site_fract_z
 _atom_site_occupancy
  Li  Li0  1  0.06990879  0.27244942  0.19091225  1
  Li  Li1  1  0.32934658  0.55233972  0.43281421  1
  Li  Li2  1  0.54659987  0.60798005  0.00678001  1
  Li  Li3  1  0.59640772  0.80447877  0.67887572  1
  Li  Li4  1  0.87243476  0.02153814  0.93501352  1
  Li  Li5  1  0.97768816  0.25745835  0.55085076  1
  P  P6  1  0.25422295  0.40240597  0.82799055  1
  P  P7  1  0.65919593  0.96620234  0.34047274  1
  S  S8  1  0.03935787  0.58096079  0.00294505  1
  S  S9  1  0.07262317  0.61857238  0.66553916  1
  S  S10  1  0.29342831  0.96819448  0.36297583  1
  S  S11  1  0.29765083  0.03169339  0.86438801  1
  S  S12  1  0.63054410  0.39174200  0.79136519  1
  S  S13  1  0.64101725  0.13341408  0.50541632  1
  S  S14  1  0.72245621  0.18174979  0.16075072  1
  S  S15  1  0.94386542  0.59320507  0.34779947  1
