# generated using pymatgen
data_Li3PS4
_symmetry_space_group_name_H-M   P1
_cell_length_a   6.10605396
_cell_length_b   6.15550430
_cell_length_c   7.30902928
_cell_angle_alpha   89.63000548
_cell_angle_beta   86.13213881
_cell_angle_gamma   89.05791483
_symmetry_Int_Tables_number   1
_chemical_formula_structural   Li3PS4
_chemical_formula_sum   'Li6 P2 S8'
_cell_volume   274.04929835
_cell_formula_units_Z   2
loop_
 _symmetry_equiv_pos_site_id
 _symmetry_equiv_pos_as_xyz
  1  'x, y, z'
loop_
 _atom_site_type_symbol
 _atom_site_label
 _atom_site_symmetry_multiplicity
 _atom_site_fract_x
 _atom_site_fract_y
 _atom_site_fract_z
 _atom_site_occupancy
  Li  Li0  1  0.24244165  0.66816211  0.01650372  1
  Li  Li1  1  0.35422306  0.06891185  0.53461073  1
  Li  Li2  1  0.41983795  0.54843506  0.61323555  1
  Li  Li3  1  0.65275091  0.66731906  0.20371288  1
  Li  Li4  1  0.87686561  0.16695768  0.84431579  1
  Li  Li5  1  0.91799809  0.13072980  0.33311889  1
  P  P6  1  0.00534789  0.69967427  0.54332265  1
  P  P7  1  0.44257013  0.24762487  0.08038389  1
  S  S8  1  0.04311368  0.37317497  0.58020125  1
  S  S9  1  0.11385084  0.30369718  0.07869715  1
  S  S10  1  0.13153514  0.85590398  0.75757736  1
  S  S11  1  0.19905946  0.81482770  0.32504351  1
  S  S12  1  0.55176563  0.95232684  0.99364679  1
  S  S13  1  0.56235434  0.31411309  0.33015143  1
  S  S14  1  0.59375367  0.46592737  0.90295534  1
  S  S15  1  0.69687687  0.80618476  0.50463699  1
