# generated using pymatgen
data_Li3PS4
_symmetry_space_group_name_H-M   P1
_cell_length_a   5.69112935
_cell_length_b   5.93629934
_cell_length_c   9.81902643
_cell_angle_alpha   84.90435827
_cell_angle_beta   73.87096863
_cell_angle_gamma   61.43006982
_symmetry_Int_Tables_number   1
_chemical_formula_structural   Li3PS4
_chemical_formula_sum   'Li6 P2 S8'
_cell_volume   279.48633862
_cell_formula_units_Z   2
loop_
 _symmetry_equiv_pos_site_id
 _symmetry_equiv_pos_as_xyz
  1  'x, y, z'
loop_
 _atom_site_type_symbol
 _atom_site_label
 _atom_site_symmetry_multiplicity
 _atom_site_fract_x
 _atom_site_fract_y
 _atom_site_fract_z
 _atom_site_occupancy
  Li  Li0  1  0.33895859  0.35440297  0.28528052  1
  Li  Li1  1  0.36747779  0.71962462  0.84383672  1
  Li  Li2  1  0.60066320  0.56752100  0.46667711  1
  Li  Li3  1  0.68208960  0.31843699  0.00034842  1
  Li  Li4  1  0.77372490  0.71650283  0.10078767  1
  Li  Li5  1  0.81676024  0.91991588  0.66672748  1
  P  P6  1  0.14537879  0.35403138  0.67038530  1
  P  P7  1  0.19542757  0.00950368  0.16285619  1
  S  S8  1  0.02197300  0.55999541  0.50098013  1
  S  S9  1  0.20111328  0.68128050  0.10292208  1
  S  S10  1  0.20967200  0.98924578  0.66537762  1
  S  S11  1  0.38101908  0.93832614  0.31930807  1
  S  S12  1  0.40844110  0.10473262  0.98762491  1
  S  S13  1  0.50188568  0.35437526  0.67511573  1
  S  S14  1  0.80114219  0.31553164  0.22075734  1
  S  S15  1  0.84080896  0.58668586  0.84126619  1
