# generated using pymatgen
data_Li3PS4
_symmetry_space_group_name_H-M   P1
_cell_length_a   5.79476221
_cell_length_b   6.01637792
_cell_length_c   9.44146676
_cell_angle_alpha   81.16093636
_cell_angle_beta   72.23042280
_cell_angle_gamma   61.89843061
_symmetry_Int_Tables_number   1
_chemical_formula_structural   Li3PS4
_chemical_formula_sum   'Li6 P2 S8'
_cell_volume   276.48695651
_cell_formula_units_Z   2
loop_
 _symmetry_equiv_pos_site_id
 _symmetry_equiv_pos_as_xyz
  1  'x, y, z'
loop_
 _atom_site_type_symbol
 _atom_site_label
 _atom_site_symmetry_multiplicity
 _atom_site_fract_x
 _atom_site_fract_y
 _atom_site_fract_z
 _atom_site_occupancy
  Li  Li0  1  0.18764099  0.60705456  0.15950187  1
  Li  Li1  1  0.22060689  0.21070023  0.01512190  1
  Li  Li2  1  0.28064563  0.38811807  0.63553252  1
  Li  Li3  1  0.62992328  0.21016552  0.28592938  1
  Li  Li4  1  0.79352863  0.61035447  0.46175399  1
  Li  Li5  1  0.96190824  0.96964145  0.77965203  1
  P  P6  1  0.31506337  0.91513911  0.37221763  1
  P  P7  1  0.63002871  0.52112862  0.86725140  1
  S  S8  1  0.02594991  0.22944604  0.29612314  1
  S  S9  1  0.22535768  0.61388481  0.40509950  1
  S  S10  1  0.27573938  0.83970686  0.93101759  1
  S  S11  1  0.36721623  0.97980989  0.56149223  1
  S  S12  1  0.61553376  0.24846488  0.02337649  1
  S  S13  1  0.66747503  0.80670568  0.21235612  1
  S  S14  1  0.68303268  0.36924633  0.67389037  1
  S  S15  1  0.96017550  0.56779442  0.86056264  1
