# generated using pymatgen
data_Li3PS4
_symmetry_space_group_name_H-M   P1
_cell_length_a   5.80205357
_cell_length_b   5.96031402
_cell_length_c   9.97078020
_cell_angle_alpha   73.09935250
_cell_angle_beta   75.07761658
_cell_angle_gamma   62.16973207
_symmetry_Int_Tables_number   1
_chemical_formula_structural   Li3PS4
_chemical_formula_sum   'Li6 P2 S8'
_cell_volume   288.71969647
_cell_formula_units_Z   2
loop_
 _symmetry_equiv_pos_site_id
 _symmetry_equiv_pos_as_xyz
  1  'x, y, z'
loop_
 _atom_site_type_symbol
 _atom_site_label
 _atom_site_symmetry_multiplicity
 _atom_site_fract_x
 _atom_site_fract_y
 _atom_site_fract_z
 _atom_site_occupancy
  Li  Li0  1  0.00396467  0.76160257  0.16058127  1
  Li  Li1  1  0.17019042  0.58918484  0.77763189  1
  Li  Li2  1  0.52033185  0.88094124  0.95898426  1
  Li  Li3  1  0.54368417  0.09365949  0.57538240  1
  Li  Li4  1  0.66692005  0.33206361  0.20924035  1
  Li  Li5  1  0.86053320  0.55919618  0.45258759  1
  P  P6  1  0.28877210  0.96141758  0.35633391  1
  P  P7  1  0.91174544  0.21715138  0.83280036  1
  S  S8  1  0.08222953  0.37120026  0.64929039  1
  S  S9  1  0.16320501  0.85003071  0.91482517  1
  S  S10  1  0.25474337  0.33107928  0.30723430  1
  S  S11  1  0.41504139  0.76832812  0.54509943  1
  S  S12  1  0.56407459  0.77001135  0.20478706  1
  S  S13  1  0.59049204  0.21119707  0.78988077  1
  S  S14  1  0.84288783  0.43729440  0.97286284  1
  S  S15  1  0.92975990  0.96681829  0.36122760  1
