# generated using pymatgen
data_Li3PS4
_symmetry_space_group_name_H-M   Cm
_cell_length_a   7.99316453
_cell_length_b   8.17952334
_cell_length_c   5.86922914
_cell_angle_alpha   90.00000000
_cell_angle_beta   131.95533534
_cell_angle_gamma   90.00000000
_symmetry_Int_Tables_number   8
_chemical_formula_structural   Li3PS4
_chemical_formula_sum   'Li6 P2 S8'
_cell_volume   285.36839082
_cell_formula_units_Z   2
loop_
 _symmetry_equiv_pos_site_id
 _symmetry_equiv_pos_as_xyz
  1  'x, y, z'
  2  'x, -y, z'
  3  'x+1/2, y+1/2, z'
  4  'x+1/2, -y+1/2, z'
loop_
 _atom_site_type_symbol
 _atom_site_label
 _atom_site_symmetry_multiplicity
 _atom_site_fract_x
 _atom_site_fract_y
 _atom_site_fract_z
 _atom_site_occupancy
  Li  Li0  4  0.34635904  0.25532729  0.28988547  1
  Li  Li1  2  0.23583282  0.50000000  0.69210994  1
  P  P2  2  0.34300921  0.00000000  0.80585058  1
  S  S3  4  0.19098631  0.20455006  0.79026941  1
  S  S4  2  0.16914453  0.50000000  0.21380970  1
  S  S5  2  0.30419149  0.00000000  0.42598663  1
