# generated using pymatgen
data_Li3PS4
_symmetry_space_group_name_H-M   P1
_cell_length_a   6.27803639
_cell_length_b   6.28023857
_cell_length_c   6.68897519
_cell_angle_alpha   89.64719435
_cell_angle_beta   89.47484845
_cell_angle_gamma   89.89345832
_symmetry_Int_Tables_number   1
_chemical_formula_structural   Li3PS4
_chemical_formula_sum   'Li6 P2 S8'
_cell_volume   263.71350684
_cell_formula_units_Z   2
loop_
 _symmetry_equiv_pos_site_id
 _symmetry_equiv_pos_as_xyz
  1  'x, y, z'
loop_
 _atom_site_type_symbol
 _atom_site_label
 _atom_site_symmetry_multiplicity
 _atom_site_fract_x
 _atom_site_fract_y
 _atom_site_fract_z
 _atom_site_occupancy
  Li  Li0  1  0.11747098  0.19145624  0.24317001  1
  Li  Li1  1  0.13526192  0.70783843  0.29266646  1
  Li  Li2  1  0.16875576  0.13931088  0.73164110  1
  Li  Li3  1  0.62124965  0.65767100  0.46027128  1
  Li  Li4  1  0.64137550  0.65330040  0.95769824  1
  Li  Li5  1  0.70447382  0.15102424  0.83072745  1
  P  P6  1  0.11768581  0.64391638  0.79461982  1
  P  P7  1  0.61479746  0.14480159  0.30088486  1
  S  S8  1  0.29463872  0.47976308  0.59236788  1
  S  S9  1  0.29901196  0.84075308  0.96231694  1
  S  S10  1  0.39084840  0.97598864  0.45769771  1
  S  S11  1  0.45777382  0.33463562  0.10417254  1
  S  S12  1  0.80742331  0.31703126  0.48036337  1
  S  S13  1  0.81027575  0.93702615  0.15111879  1
  S  S14  1  0.90086031  0.83407309  0.65448700  1
  S  S15  1  0.96132276  0.42878218  0.97250838  1
