# generated using pymatgen
data_Li3PS4
_symmetry_space_group_name_H-M   P1
_cell_length_a   5.96214947
_cell_length_b   6.15914888
_cell_length_c   7.58683163
_cell_angle_alpha   91.06961202
_cell_angle_beta   90.55243117
_cell_angle_gamma   90.82499829
_symmetry_Int_Tables_number   1
_chemical_formula_structural   Li3PS4
_chemical_formula_sum   'Li6 P2 S8'
_cell_volume   278.51075115
_cell_formula_units_Z   2
loop_
 _symmetry_equiv_pos_site_id
 _symmetry_equiv_pos_as_xyz
  1  'x, y, z'
loop_
 _atom_site_type_symbol
 _atom_site_label
 _atom_site_symmetry_multiplicity
 _atom_site_fract_x
 _atom_site_fract_y
 _atom_site_fract_z
 _atom_site_occupancy
  Li  Li0  1  0.07590939  0.67548306  0.77575014  1
  Li  Li1  1  0.53401158  0.29211059  0.31194479  1
  Li  Li2  1  0.54844886  0.27557114  0.81641901  1
  Li  Li3  1  0.56738493  0.79581203  0.54511458  1
  Li  Li4  1  0.96644067  0.42188398  0.07734929  1
  Li  Li5  1  0.98582267  0.95756827  0.24980412  1
  P  P6  1  0.05671457  0.16752765  0.56925891  1
  P  P7  1  0.55630215  0.78390398  0.05307369  1
  S  S8  1  0.15634034  0.34970841  0.36326507  1
  S  S9  1  0.16184415  0.29970910  0.80162077  1
  S  S10  1  0.16513080  0.85921890  0.52439182  1
  S  S11  1  0.21936912  0.76079149  0.05493294  1
  S  S12  1  0.66756786  0.09853463  0.06724681  1
  S  S13  1  0.68001601  0.63596382  0.83179980  1
  S  S14  1  0.70805368  0.63804690  0.26173037  1
  S  S15  1  0.71254148  0.15541581  0.55996529  1
