# generated using pymatgen
data_Li3PS4
_symmetry_space_group_name_H-M   P1
_cell_length_a   6.23340265
_cell_length_b   6.35274066
_cell_length_c   6.76685237
_cell_angle_alpha   90.95868369
_cell_angle_beta   91.05608094
_cell_angle_gamma   91.97398869
_symmetry_Int_Tables_number   1
_chemical_formula_structural   Li3PS4
_chemical_formula_sum   'Li6 P2 S8'
_cell_volume   267.71692726
_cell_formula_units_Z   2
loop_
 _symmetry_equiv_pos_site_id
 _symmetry_equiv_pos_as_xyz
  1  'x, y, z'
loop_
 _atom_site_type_symbol
 _atom_site_label
 _atom_site_symmetry_multiplicity
 _atom_site_fract_x
 _atom_site_fract_y
 _atom_site_fract_z
 _atom_site_occupancy
  Li  Li0  1  0.34969387  0.59348041  0.89522850  1
  Li  Li1  1  0.35908218  0.04450314  0.19173943  1
  Li  Li2  1  0.36332382  0.62347001  0.40379278  1
  Li  Li3  1  0.84434640  0.15244539  0.29001845  1
  Li  Li4  1  0.85105877  0.75813582  0.68835600  1
  Li  Li5  1  0.90793571  0.22993515  0.81391227  1
  P  P6  1  0.37449272  0.13123095  0.73314630  1
  P  P7  1  0.87259324  0.63798701  0.23262300  1
  S  S8  1  0.06392401  0.85703825  0.38179192  1
  S  S9  1  0.07007149  0.43204806  0.09896227  1
  S  S10  1  0.16298181  0.93476670  0.87708839  1
  S  S11  1  0.19136075  0.34484100  0.59502305  1
  S  S12  1  0.55886849  0.28190608  0.94598494  1
  S  S13  1  0.56193763  0.97160428  0.54187113  1
  S  S14  1  0.67501971  0.79657130  0.04929300  1
  S  S15  1  0.70452212  0.47179729  0.43640197  1
