# generated using pymatgen
data_Li3PS4
_symmetry_space_group_name_H-M   Cc
_cell_length_a   9.11051458
_cell_length_b   8.95187593
_cell_length_c   6.47619328
_cell_angle_alpha   90.00000000
_cell_angle_beta   90.59265993
_cell_angle_gamma   90.00000000
_symmetry_Int_Tables_number   9
_chemical_formula_structural   Li3PS4
_chemical_formula_sum   'Li12 P4 S16'
_cell_volume   528.14543318
_cell_formula_units_Z   4
loop_
 _symmetry_equiv_pos_site_id
 _symmetry_equiv_pos_as_xyz
  1  'x, y, z'
  2  'x, -y, z+1/2'
  3  'x+1/2, y+1/2, z'
  4  'x+1/2, -y+1/2, z+1/2'
loop_
 _atom_site_type_symbol
 _atom_site_label
 _atom_site_symmetry_multiplicity
 _atom_site_fract_x
 _atom_site_fract_y
 _atom_site_fract_z
 _atom_site_occupancy
  Li  Li0  4  0.05387777  0.19712642  0.28570537  1
  Li  Li1  4  0.32248152  0.43290686  0.32363181  1
  Li  Li2  4  0.37502794  0.02209044  0.44387264  1
  P  P3  4  0.12527113  0.24997542  0.80781154  1
  S  S4  4  0.10724447  0.05173603  0.96027211  1
  S  S5  4  0.13352767  0.41535107  0.02306666  1
  S  S6  4  0.30795302  0.25703813  0.63018277  1
  S  S7  4  0.44017307  0.22207439  0.13331636  1
