# generated using pymatgen
data_Li3PS4
_symmetry_space_group_name_H-M   Cm
_cell_length_a   8.07694512
_cell_length_b   8.24544338
_cell_length_c   5.85205807
_cell_angle_alpha   90.00000000
_cell_angle_beta   132.89329484
_cell_angle_gamma   90.00000000
_symmetry_Int_Tables_number   8
_chemical_formula_structural   Li3PS4
_chemical_formula_sum   'Li6 P2 S8'
_cell_volume   285.52889134
_cell_formula_units_Z   2
loop_
 _symmetry_equiv_pos_site_id
 _symmetry_equiv_pos_as_xyz
  1  'x, y, z'
  2  'x, -y, z'
  3  'x+1/2, y+1/2, z'
  4  'x+1/2, -y+1/2, z'
loop_
 _atom_site_type_symbol
 _atom_site_label
 _atom_site_symmetry_multiplicity
 _atom_site_fract_x
 _atom_site_fract_y
 _atom_site_fract_z
 _atom_site_occupancy
  Li  Li0  4  0.40008899  0.25483435  0.39322936  1
  Li  Li1  2  0.00704670  0.00000000  0.98713303  1
  P  P2  2  0.39656501  0.00000000  0.87768068  1
  S  S3  4  0.04608278  0.29607992  0.89373090  1
  S  S4  2  0.06727971  0.00000000  0.46412122  1
  S  S5  2  0.43783743  0.00000000  0.26149774  1
