# generated using pymatgen
data_Li3PS4
_symmetry_space_group_name_H-M   P1
_cell_length_a   5.85692520
_cell_length_b   5.87875538
_cell_length_c   9.84946478
_cell_angle_alpha   74.59477105
_cell_angle_beta   74.74322190
_cell_angle_gamma   60.43424682
_symmetry_Int_Tables_number   1
_chemical_formula_structural   Li3PS4
_chemical_formula_sum   'Li6 P2 S8'
_cell_volume   280.82553986
_cell_formula_units_Z   2
loop_
 _symmetry_equiv_pos_site_id
 _symmetry_equiv_pos_as_xyz
  1  'x, y, z'
loop_
 _atom_site_type_symbol
 _atom_site_label
 _atom_site_symmetry_multiplicity
 _atom_site_fract_x
 _atom_site_fract_y
 _atom_site_fract_z
 _atom_site_occupancy
  Li  Li0  1  0.16749238  0.77842878  0.81948386  1
  Li  Li1  1  0.37366889  0.98176596  0.45654921  1
  Li  Li2  1  0.41026452  0.12813786  0.08995667  1
  Li  Li3  1  0.65886353  0.40570590  0.31259272  1
  Li  Li4  1  0.81336003  0.38328244  0.86790078  1
  Li  Li5  1  0.95195770  0.79206851  0.52114488  1
  P  P6  1  0.04949371  0.79315719  0.19190448  1
  P  P7  1  0.51231473  0.16055499  0.69231137  1
  S  S8  1  0.08606930  0.06118921  0.27207024  1
  S  S9  1  0.26178202  0.32712658  0.86352297  1
  S  S10  1  0.34187161  0.37406156  0.51439455  1
  S  S11  1  0.41758627  0.50546560  0.13255361  1
  S  S12  1  0.57193778  0.78382270  0.69797841  1
  S  S13  1  0.81935646  0.66962199  0.35424362  1
  S  S14  1  0.86866590  0.95348577  0.01588140  1
  S  S15  1  0.87639514  0.14582294  0.66398279  1
