# generated using pymatgen
data_Li3PS4
_symmetry_space_group_name_H-M   P1
_cell_length_a   5.81356368
_cell_length_b   5.88313161
_cell_length_c   10.05602798
_cell_angle_alpha   74.65027052
_cell_angle_beta   73.91497542
_cell_angle_gamma   60.92225243
_symmetry_Int_Tables_number   1
_chemical_formula_structural   Li3PS4
_chemical_formula_sum   'Li6 P2 S8'
_cell_volume   285.33405999
_cell_formula_units_Z   2
loop_
 _symmetry_equiv_pos_site_id
 _symmetry_equiv_pos_as_xyz
  1  'x, y, z'
loop_
 _atom_site_type_symbol
 _atom_site_label
 _atom_site_symmetry_multiplicity
 _atom_site_fract_x
 _atom_site_fract_y
 _atom_site_fract_z
 _atom_site_occupancy
  Li  Li0  1  0.01531191  0.44917579  0.47939395  1
  Li  Li1  1  0.13398098  0.47709666  0.06867141  1
  Li  Li2  1  0.39394792  0.73627766  0.28256576  1
  Li  Li3  1  0.48986328  0.96382849  0.88214250  1
  Li  Li4  1  0.64014072  0.07018610  0.54065198  1
  Li  Li5  1  0.88565069  0.31177627  0.81383724  1
  P  P6  1  0.28372575  0.67343595  0.67811640  1
  P  P7  1  0.75796442  0.06450290  0.17439295  1
  S  S8  1  0.01569652  0.17964232  0.02753379  1
  S  S9  1  0.24567009  0.04384688  0.66416885  1
  S  S10  1  0.39393707  0.35972591  0.23595158  1
  S  S11  1  0.43378719  0.43633730  0.85183068  1
  S  S12  1  0.53728565  0.51680835  0.50648612  1
  S  S13  1  0.70609906  0.80991614  0.09685079  1
  S  S14  1  0.91129817  0.70673512  0.69268971  1
  S  S15  1  0.93078910  0.89290684  0.34914631  1
