# generated using pymatgen
data_Li3PS4
_symmetry_space_group_name_H-M   P1
_cell_length_a   5.82548393
_cell_length_b   5.89958389
_cell_length_c   9.89469346
_cell_angle_alpha   76.06503228
_cell_angle_beta   75.14874098
_cell_angle_gamma   61.92204900
_symmetry_Int_Tables_number   1
_chemical_formula_structural   Li3PS4
_chemical_formula_sum   'Li6 P2 S8'
_cell_volume   287.12078600
_cell_formula_units_Z   2
loop_
 _symmetry_equiv_pos_site_id
 _symmetry_equiv_pos_as_xyz
  1  'x, y, z'
loop_
 _atom_site_type_symbol
 _atom_site_label
 _atom_site_symmetry_multiplicity
 _atom_site_fract_x
 _atom_site_fract_y
 _atom_site_fract_z
 _atom_site_occupancy
  Li  Li0  1  0.08921612  0.09530262  0.53663733  1
  Li  Li1  1  0.11446824  0.30009133  0.19884573  1
  Li  Li2  1  0.35104449  0.81342702  0.03905553  1
  Li  Li3  1  0.40535645  0.52315067  0.43092796  1
  Li  Li4  1  0.56536330  0.85126472  0.69755038  1
  Li  Li5  1  0.78395717  0.13413027  0.93276382  1
  P  P6  1  0.15166959  0.50671147  0.82931444  1
  P  P7  1  0.76897943  0.89703724  0.33082202  1
  S  S8  1  0.03805477  0.52580053  0.37723267  1
  S  S9  1  0.15167819  0.18045566  0.79249020  1
  S  S10  1  0.33991297  0.64598292  0.65128066  1
  S  S11  1  0.34822141  0.42421716  0.99072493  1
  S  S12  1  0.43431758  0.89835670  0.29996350  1
  S  S13  1  0.68869993  0.09260846  0.49315296  1
  S  S14  1  0.77594865  0.77487840  0.88178901  1
  S  S15  1  0.90396855  0.08407473  0.15089324  1
