# generated using pymatgen
data_Li3PS4
_symmetry_space_group_name_H-M   Cm
_cell_length_a   8.00254177
_cell_length_b   8.70096747
_cell_length_c   5.66715441
_cell_angle_alpha   90.00000000
_cell_angle_beta   134.81826867
_cell_angle_gamma   90.00000000
_symmetry_Int_Tables_number   8
_chemical_formula_structural   Li3PS4
_chemical_formula_sum   'Li6 P2 S8'
_cell_volume   279.91017265
_cell_formula_units_Z   2
loop_
 _symmetry_equiv_pos_site_id
 _symmetry_equiv_pos_as_xyz
  1  'x, y, z'
  2  'x, -y, z'
  3  'x+1/2, y+1/2, z'
  4  'x+1/2, -y+1/2, z'
loop_
 _atom_site_type_symbol
 _atom_site_label
 _atom_site_symmetry_multiplicity
 _atom_site_fract_x
 _atom_site_fract_y
 _atom_site_fract_z
 _atom_site_occupancy
  Li  Li0  4  0.46407209  0.24879111  0.16022270  1
  Li  Li1  2  0.01458363  0.50000000  0.69966325  1
  P  P2  2  0.43861000  0.50000000  0.65317294  1
  S  S3  4  0.07564895  0.19965985  0.66075717  1
  S  S4  2  0.08813536  0.50000000  0.22708105  1
  S  S5  2  0.49557353  0.50000000  0.06471851  1
