# generated using pymatgen
data_Li3PS4
_symmetry_space_group_name_H-M   P1
_cell_length_a   5.81165878
_cell_length_b   5.82340244
_cell_length_c   9.72616280
_cell_angle_alpha   77.53930561
_cell_angle_beta   75.99593680
_cell_angle_gamma   61.38776285
_symmetry_Int_Tables_number   1
_chemical_formula_structural   Li3PS4
_chemical_formula_sum   'Li6 P2 S8'
_cell_volume   278.44770235
_cell_formula_units_Z   2
loop_
 _symmetry_equiv_pos_site_id
 _symmetry_equiv_pos_as_xyz
  1  'x, y, z'
loop_
 _atom_site_type_symbol
 _atom_site_label
 _atom_site_symmetry_multiplicity
 _atom_site_fract_x
 _atom_site_fract_y
 _atom_site_fract_z
 _atom_site_occupancy
  Li  Li0  1  0.23393144  0.68531026  0.79166193  1
  Li  Li1  1  0.29515837  0.76713197  0.45868833  1
  Li  Li2  1  0.42971802  0.97852093  0.02777834  1
  Li  Li3  1  0.69474675  0.22313442  0.22542092  1
  Li  Li4  1  0.84073086  0.30442262  0.82623484  1
  Li  Li5  1  0.96252655  0.40408188  0.44838184  1
  P  P6  1  0.11218729  0.61191782  0.12891292  1
  P  P7  1  0.57107460  0.06553112  0.63131253  1
  S  S8  1  0.10071210  0.25820461  0.19420155  1
  S  S9  1  0.31545514  0.23175017  0.80695876  1
  S  S10  1  0.41592940  0.31017616  0.45920156  1
  S  S11  1  0.49101677  0.54927539  0.04368549  1
  S  S12  1  0.61342400  0.69523150  0.63203270  1
  S  S13  1  0.88532012  0.84866955  0.97810118  1
  S  S14  1  0.93698916  0.04164717  0.62718860  1
  S  S15  1  0.97432553  0.79240655  0.30862482  1
