# generated using pymatgen
data_Li3PS4
_symmetry_space_group_name_H-M   P2_1
_cell_length_a   5.86540960
_cell_length_b   5.91166545
_cell_length_c   8.17960988
_cell_angle_alpha   90.00000000
_cell_angle_beta   90.46060529
_cell_angle_gamma   90.00000000
_symmetry_Int_Tables_number   4
_chemical_formula_structural   Li3PS4
_chemical_formula_sum   'Li6 P2 S8'
_cell_volume   283.61340325
_cell_formula_units_Z   2
loop_
 _symmetry_equiv_pos_site_id
 _symmetry_equiv_pos_as_xyz
  1  'x, y, z'
  2  '-x, y+1/2, -z'
loop_
 _atom_site_type_symbol
 _atom_site_label
 _atom_site_symmetry_multiplicity
 _atom_site_fract_x
 _atom_site_fract_y
 _atom_site_fract_z
 _atom_site_occupancy
  Li  Li0  2  0.24350386  0.41307165  0.47701360  1
  Li  Li1  2  0.25105462  0.41680794  0.98802623  1
  Li  Li2  2  0.27906558  0.93714029  0.68377474  1
  P  P3  2  0.24945665  0.91254344  0.25194770  1
  S  S4  2  0.04104459  0.71878094  0.39215641  1
  S  S5  2  0.05004059  0.12770669  0.12212315  1
  S  S6  2  0.45647096  0.69884329  0.12508135  1
  S  S7  2  0.45746016  0.10449723  0.39841360  1
