# generated using pymatgen
data_Li3PS4
_symmetry_space_group_name_H-M   P1
_cell_length_a   5.81891761
_cell_length_b   6.55780929
_cell_length_c   7.62491734
_cell_angle_alpha   90.14325775
_cell_angle_beta   91.23464273
_cell_angle_gamma   93.11197248
_symmetry_Int_Tables_number   1
_chemical_formula_structural   Li3PS4
_chemical_formula_sum   'Li6 P2 S8'
_cell_volume   290.46342318
_cell_formula_units_Z   2
loop_
 _symmetry_equiv_pos_site_id
 _symmetry_equiv_pos_as_xyz
  1  'x, y, z'
loop_
 _atom_site_type_symbol
 _atom_site_label
 _atom_site_symmetry_multiplicity
 _atom_site_fract_x
 _atom_site_fract_y
 _atom_site_fract_z
 _atom_site_occupancy
  Li  Li0  1  0.12368863  0.97268016  0.04312840  1
  Li  Li1  1  0.22543647  0.63679139  0.58027700  1
  Li  Li2  1  0.37932155  0.61029280  0.07089716  1
  Li  Li3  1  0.51817333  0.29183714  0.53621479  1
  Li  Li4  1  0.69075013  0.28308378  0.97714264  1
  Li  Li5  1  0.90241044  0.95913398  0.47449317  1
  P  P6  1  0.65873753  0.81170689  0.78256441  1
  P  P7  1  0.96309691  0.44194054  0.26959003  1
  S  S8  1  0.00529416  0.84603987  0.76609030  1
  S  S9  1  0.07387284  0.29734250  0.48904343  1
  S  S10  1  0.08666473  0.33115082  0.04321906  1
  S  S11  1  0.09849746  0.73713061  0.28682863  1
  S  S12  1  0.51342160  0.93232400  0.56469713  1
  S  S13  1  0.52343873  0.51550789  0.78336896  1
  S  S14  1  0.56310244  0.94007185  0.01100584  1
  S  S15  1  0.61458467  0.41216183  0.26118014  1
