# generated using pymatgen
data_Li3PS4
_symmetry_space_group_name_H-M   P1
_cell_length_a   5.82377475
_cell_length_b   5.91128515
_cell_length_c   10.06034368
_cell_angle_alpha   89.04389767
_cell_angle_beta   73.51339096
_cell_angle_gamma   60.51007563
_symmetry_Int_Tables_number   1
_chemical_formula_structural   Li3PS4
_chemical_formula_sum   'Li6 P2 S8'
_cell_volume   285.91527089
_cell_formula_units_Z   2
loop_
 _symmetry_equiv_pos_site_id
 _symmetry_equiv_pos_as_xyz
  1  'x, y, z'
loop_
 _atom_site_type_symbol
 _atom_site_label
 _atom_site_symmetry_multiplicity
 _atom_site_fract_x
 _atom_site_fract_y
 _atom_site_fract_z
 _atom_site_occupancy
  Li  Li0  1  0.09145023  0.45030149  0.95072244  1
  Li  Li1  1  0.18215311  0.85373366  0.41456799  1
  Li  Li2  1  0.28308866  0.36988235  0.61213430  1
  Li  Li3  1  0.36801097  0.79222087  0.02734827  1
  Li  Li4  1  0.59042863  0.69313262  0.67721953  1
  Li  Li5  1  0.67189888  0.12624844  0.19956315  1
  P  P6  1  0.85911570  0.07182396  0.80974218  1
  P  P7  1  0.96084843  0.45110409  0.31084746  1
  S  S8  1  0.18036970  0.00130012  0.63656491  1
  S  S9  1  0.29120936  0.07954464  0.23967370  1
  S  S10  1  0.50230023  0.38637577  0.79354443  1
  S  S11  1  0.60236206  0.44055735  0.36478877  1
  S  S12  1  0.80240089  0.75664335  0.83174189  1
  S  S13  1  0.94190490  0.15093811  0.98078657  1
  S  S14  1  0.95684984  0.62011208  0.48714437  1
  S  S15  1  0.99640142  0.67673189  0.16059981  1
