# generated using pymatgen
data_Li3PS4
_symmetry_space_group_name_H-M   P1
_cell_length_a   5.84342166
_cell_length_b   5.85325679
_cell_length_c   10.08125771
_cell_angle_alpha   74.43467901
_cell_angle_beta   73.76036415
_cell_angle_gamma   60.77329791
_symmetry_Int_Tables_number   1
_chemical_formula_structural   Li3PS4
_chemical_formula_sum   'Li6 P2 S8'
_cell_volume   285.31103471
_cell_formula_units_Z   2
loop_
 _symmetry_equiv_pos_site_id
 _symmetry_equiv_pos_as_xyz
  1  'x, y, z'
loop_
 _atom_site_type_symbol
 _atom_site_label
 _atom_site_symmetry_multiplicity
 _atom_site_fract_x
 _atom_site_fract_y
 _atom_site_fract_z
 _atom_site_occupancy
  Li  Li0  1  0.13567963  0.86112337  0.88431154  1
  Li  Li1  1  0.34958408  0.96018860  0.48613278  1
  Li  Li2  1  0.46497150  0.10227330  0.13798587  1
  Li  Li3  1  0.70113884  0.35486006  0.41640225  1
  Li  Li4  1  0.84548816  0.47363084  0.08746185  1
  Li  Li5  1  0.87118256  0.60721951  0.67031628  1
  P  P6  1  0.06579669  0.75249762  0.28192930  1
  P  P7  1  0.45743466  0.23057104  0.77738907  1
  S  S8  1  0.10227016  0.38144317  0.29578489  1
  S  S9  1  0.19876229  0.17963900  0.70300287  1
  S  S10  1  0.28518417  0.40526247  0.95329754  1
  S  S11  1  0.43864054  0.71605798  0.26907452  1
  S  S12  1  0.57163947  0.48731722  0.63072602  1
  S  S13  1  0.75214754  0.86938388  0.83772849  1
  S  S14  1  0.82175569  0.90681607  0.45621725  1
  S  S15  1  0.91521850  0.00229522  0.11111409  1
