# generated using pymatgen
data_Li3PS4
_symmetry_space_group_name_H-M   Cm
_cell_length_a   8.10059949
_cell_length_b   8.27342884
_cell_length_c   5.84357047
_cell_angle_alpha   90.00000000
_cell_angle_beta   133.21024754
_cell_angle_gamma   90.00000000
_symmetry_Int_Tables_number   8
_chemical_formula_structural   Li3PS4
_chemical_formula_sum   'Li6 P2 S8'
_cell_volume   285.44133606
_cell_formula_units_Z   2
loop_
 _symmetry_equiv_pos_site_id
 _symmetry_equiv_pos_as_xyz
  1  'x, y, z'
  2  'x, -y, z'
  3  'x+1/2, y+1/2, z'
  4  'x+1/2, -y+1/2, z'
loop_
 _atom_site_type_symbol
 _atom_site_label
 _atom_site_symmetry_multiplicity
 _atom_site_fract_x
 _atom_site_fract_y
 _atom_site_fract_z
 _atom_site_occupancy
  Li  Li0  4  0.17667972  0.24538946  0.06912424  1
  Li  Li1  2  0.27733753  0.00000000  0.65608262  1
  P  P2  2  0.17135047  0.50000000  0.55296799  1
  S  S3  4  0.31986926  0.29627835  0.56904826  1
  S  S4  2  0.21347764  0.50000000  0.93847981  1
  S  S5  2  0.34072495  0.00000000  0.13762163  1
