# generated using pymatgen
data_Li3PS4
_symmetry_space_group_name_H-M   P1
_cell_length_a   5.79433994
_cell_length_b   5.84236757
_cell_length_c   10.06980762
_cell_angle_alpha   74.99757000
_cell_angle_beta   74.71475630
_cell_angle_gamma   61.34999509
_symmetry_Int_Tables_number   1
_chemical_formula_structural   Li3PS4
_chemical_formula_sum   'Li6 P2 S8'
_cell_volume   285.01565651
_cell_formula_units_Z   2
loop_
 _symmetry_equiv_pos_site_id
 _symmetry_equiv_pos_as_xyz
  1  'x, y, z'
loop_
 _atom_site_type_symbol
 _atom_site_label
 _atom_site_symmetry_multiplicity
 _atom_site_fract_x
 _atom_site_fract_y
 _atom_site_fract_z
 _atom_site_occupancy
  Li  Li0  1  0.11834489  0.92042841  0.26635215  1
  Li  Li1  1  0.36610303  0.16171193  0.51647766  1
  Li  Li2  1  0.46684836  0.33606359  0.18585039  1
  Li  Li3  1  0.61641560  0.43294974  0.76908739  1
  Li  Li4  1  0.87397300  0.66955719  0.02452381  1
  Li  Li5  1  0.94830924  0.84965753  0.69569411  1
  P  P6  1  0.25129035  0.04419102  0.88689617  1
  P  P7  1  0.75286657  0.53345773  0.38600594  1
  S  S8  1  0.01064579  0.36287273  0.21892013  1
  S  S9  1  0.20729523  0.42007805  0.85895613  1
  S  S10  1  0.38556434  0.55313927  0.40522019  1
  S  S11  1  0.41276226  0.81016679  0.05855064  1
  S  S12  1  0.49987563  0.87832889  0.71714486  1
  S  S13  1  0.70821149  0.90971934  0.35635263  1
  S  S14  1  0.88062631  0.06668709  0.91164876  1
  S  S15  1  0.90602419  0.30883101  0.56165296  1
