# generated using pymatgen
data_Li3PS4
_symmetry_space_group_name_H-M   Pm
_cell_length_a   5.89094492
_cell_length_b   8.04146238
_cell_length_c   6.00227543
_cell_angle_alpha   90.00000000
_cell_angle_beta   94.47682007
_cell_angle_gamma   90.00000000
_symmetry_Int_Tables_number   6
_chemical_formula_structural   Li3PS4
_chemical_formula_sum   'Li6 P2 S8'
_cell_volume   283.47114425
_cell_formula_units_Z   2
loop_
 _symmetry_equiv_pos_site_id
 _symmetry_equiv_pos_as_xyz
  1  'x, y, z'
  2  'x, -y, z'
loop_
 _atom_site_type_symbol
 _atom_site_label
 _atom_site_symmetry_multiplicity
 _atom_site_fract_x
 _atom_site_fract_y
 _atom_site_fract_z
 _atom_site_occupancy
  Li  Li0  2  0.26071919  0.24999865  0.57872689  1
  Li  Li1  2  0.73976995  0.24090477  0.03136252  1
  Li  Li2  1  0.27496834  0.00000000  0.11717694  1
  Li  Li3  1  0.73495438  0.50000000  0.40123134  1
  P  P4  1  0.22851984  0.50000000  0.05937023  1
  P  P5  1  0.72774314  0.00000000  0.52398647  1
  S  S6  2  0.10055189  0.28618575  0.92022716  1
  S  S7  2  0.58044978  0.20337595  0.37097403  1
  S  S8  1  0.06570194  0.00000000  0.48181816  1
  S  S9  1  0.15402552  0.50000000  0.38761607  1
  S  S10  1  0.56553072  0.50000000  0.99508603  1
  S  S11  1  0.63894086  0.00000000  0.84460031  1
