# generated using pymatgen
data_Li3PS4
_symmetry_space_group_name_H-M   P1
_cell_length_a   5.86396822
_cell_length_b   5.86637337
_cell_length_c   9.99493109
_cell_angle_alpha   74.92733918
_cell_angle_beta   73.96239342
_cell_angle_gamma   60.88532713
_symmetry_Int_Tables_number   1
_chemical_formula_structural   Li3PS4
_chemical_formula_sum   'Li6 P2 S8'
_cell_volume   285.44423753
_cell_formula_units_Z   2
loop_
 _symmetry_equiv_pos_site_id
 _symmetry_equiv_pos_as_xyz
  1  'x, y, z'
loop_
 _atom_site_type_symbol
 _atom_site_label
 _atom_site_symmetry_multiplicity
 _atom_site_fract_x
 _atom_site_fract_y
 _atom_site_fract_z
 _atom_site_occupancy
  Li  Li0  1  0.18655898  0.82976444  0.91027095  1
  Li  Li1  1  0.21731323  0.08543115  0.50044843  1
  Li  Li2  1  0.35918230  0.15239077  0.16218847  1
  Li  Li3  1  0.58779763  0.40558856  0.43237474  1
  Li  Li4  1  0.71032978  0.47901417  0.08997243  1
  Li  Li5  1  0.92050500  0.55587284  0.69733168  1
  P  P6  1  0.59006951  0.14950890  0.80230185  1
  P  P7  1  0.99249512  0.77424579  0.30355943  1
  S  S8  1  0.14181544  0.70708004  0.47790467  1
  S  S9  1  0.24303791  0.84965520  0.13209042  1
  S  S10  1  0.28895842  0.13918495  0.74390624  1
  S  S11  1  0.46932885  0.38046960  0.95224989  1
  S  S12  1  0.62301878  0.08868271  0.31666651  1
  S  S13  1  0.76379304  0.31604963  0.62730781  1
  S  S14  1  0.84161748  0.77821381  0.87921430  1
  S  S15  1  0.95882201  0.45416791  0.28356225  1
