# generated using pymatgen
data_Li3PS4
_symmetry_space_group_name_H-M   P1
_cell_length_a   5.77843583
_cell_length_b   5.82151118
_cell_length_c   8.13414157
_cell_angle_alpha   94.45585952
_cell_angle_beta   91.96520393
_cell_angle_gamma   99.53916877
_symmetry_Int_Tables_number   1
_chemical_formula_structural   Li3PS4
_chemical_formula_sum   'Li6 P2 S8'
_cell_volume   268.71732725
_cell_formula_units_Z   2
loop_
 _symmetry_equiv_pos_site_id
 _symmetry_equiv_pos_as_xyz
  1  'x, y, z'
loop_
 _atom_site_type_symbol
 _atom_site_label
 _atom_site_symmetry_multiplicity
 _atom_site_fract_x
 _atom_site_fract_y
 _atom_site_fract_z
 _atom_site_occupancy
  Li  Li0  1  0.10054294  0.83312582  0.48951840  1
  Li  Li1  1  0.16254110  0.33650033  0.76244649  1
  Li  Li2  1  0.28827374  0.09099657  0.00694679  1
  Li  Li3  1  0.57518249  0.87153154  0.21402712  1
  Li  Li4  1  0.61878580  0.41822220  0.49983706  1
  Li  Li5  1  0.81531426  0.60357063  0.97485746  1
  P  P6  1  0.64825503  0.95631775  0.73521848  1
  P  P7  1  0.95313744  0.26987005  0.24755427  1
  S  S8  1  0.00916934  0.93044991  0.21501500  1
  S  S9  1  0.04835882  0.41001050  0.48015994  1
  S  S10  1  0.14853448  0.45281826  0.08045864  1
  S  S11  1  0.46606492  0.76630695  0.90708355  1
  S  S12  1  0.52310250  0.81202422  0.50889339  1
  S  S13  1  0.58590390  0.29126581  0.77398751  1
  S  S14  1  0.61125214  0.30824900  0.20812426  1
  S  S15  1  0.99203008  0.91757892  0.76806746  1
