# generated using pymatgen
data_Li3PS4
_symmetry_space_group_name_H-M   P1
_cell_length_a   5.85124688
_cell_length_b   5.85730785
_cell_length_c   9.91645145
_cell_angle_alpha   75.32012303
_cell_angle_beta   75.69056820
_cell_angle_gamma   61.84199232
_symmetry_Int_Tables_number   1
_chemical_formula_structural   Li3PS4
_chemical_formula_sum   'Li6 P2 S8'
_cell_volume   286.59724617
_cell_formula_units_Z   2
loop_
 _symmetry_equiv_pos_site_id
 _symmetry_equiv_pos_as_xyz
  1  'x, y, z'
loop_
 _atom_site_type_symbol
 _atom_site_label
 _atom_site_symmetry_multiplicity
 _atom_site_fract_x
 _atom_site_fract_y
 _atom_site_fract_z
 _atom_site_occupancy
  Li  Li0  1  0.11089624  0.52031172  0.12507254  1
  Li  Li1  1  0.13735625  0.77504554  0.72472729  1
  Li  Li2  1  0.40338301  0.04204755  0.93520826  1
  Li  Li3  1  0.63604755  0.09386320  0.54095492  1
  Li  Li4  1  0.74433532  0.19064861  0.20103838  1
  Li  Li5  1  0.98492746  0.43540630  0.46840107  1
  P  P6  1  0.34503845  0.82121840  0.32759129  1
  P  P7  1  0.73908220  0.44932601  0.82862815  1
  S  S8  1  0.04373443  0.45781658  0.88786981  1
  S  S9  1  0.10520031  0.73808822  0.49892056  1
  S  S10  1  0.18371192  0.89550374  0.15341531  1
  S  S11  1  0.37877291  0.14230452  0.34883049  1
  S  S12  1  0.49195686  0.81934864  0.75070632  1
  S  S13  1  0.56525163  0.28585835  0.00276325  1
  S  S14  1  0.71183489  0.51636962  0.31015631  1
  S  S15  1  0.85749111  0.22076996  0.67841899  1
