# generated using pymatgen
data_Li3PS4
_symmetry_space_group_name_H-M   P1
_cell_length_a   5.82052124
_cell_length_b   5.84590809
_cell_length_c   9.99493752
_cell_angle_alpha   75.75169182
_cell_angle_beta   74.63438721
_cell_angle_gamma   61.33614333
_symmetry_Int_Tables_number   1
_chemical_formula_structural   Li3PS4
_chemical_formula_sum   'Li6 P2 S8'
_cell_volume   284.88343513
_cell_formula_units_Z   2
loop_
 _symmetry_equiv_pos_site_id
 _symmetry_equiv_pos_as_xyz
  1  'x, y, z'
loop_
 _atom_site_type_symbol
 _atom_site_label
 _atom_site_symmetry_multiplicity
 _atom_site_fract_x
 _atom_site_fract_y
 _atom_site_fract_z
 _atom_site_occupancy
  Li  Li0  1  0.08071713  0.49735234  0.05094561  1
  Li  Li1  1  0.32389988  0.75020212  0.33500668  1
  Li  Li2  1  0.43045626  0.88814521  0.97797878  1
  Li  Li3  1  0.65964192  0.97699950  0.57937574  1
  Li  Li4  1  0.92566394  0.23966151  0.79081511  1
  Li  Li5  1  0.93733970  0.38414740  0.37049627  1
  P  P6  1  0.34017747  0.60873109  0.68807474  1
  P  P7  1  0.71664764  0.09923816  0.17964454  1
  S  S8  1  0.04943144  0.96513328  0.62492738  1
  S  S9  1  0.22519937  0.35805441  0.83514349  1
  S  S10  1  0.34383409  0.13120139  0.19530980  1
  S  S11  1  0.51166987  0.42818322  0.51211345  1
  S  S12  1  0.59958581  0.66479922  0.76215945  1
  S  S13  1  0.67901984  0.46927882  0.16832912  1
  S  S14  1  0.87409445  0.84894861  0.34802917  1
  S  S15  1  0.95274076  0.94488868  0.00307735  1
