# generated using pymatgen
data_Li3PS4
_symmetry_space_group_name_H-M   P1
_cell_length_a   5.82923369
_cell_length_b   5.90220389
_cell_length_c   10.00242344
_cell_angle_alpha   74.98030382
_cell_angle_beta   74.25551254
_cell_angle_gamma   60.98701470
_symmetry_Int_Tables_number   1
_chemical_formula_structural   Li3PS4
_chemical_formula_sum   'Li6 P2 S8'
_cell_volume   286.31466184
_cell_formula_units_Z   2
loop_
 _symmetry_equiv_pos_site_id
 _symmetry_equiv_pos_as_xyz
  1  'x, y, z'
loop_
 _atom_site_type_symbol
 _atom_site_label
 _atom_site_symmetry_multiplicity
 _atom_site_fract_x
 _atom_site_fract_y
 _atom_site_fract_z
 _atom_site_occupancy
  Li  Li0  1  0.12372825  0.74428427  0.58009667  1
  Li  Li1  1  0.18762165  0.87799196  0.24461637  1
  Li  Li2  1  0.43427099  0.11949535  0.51433707  1
  Li  Li3  1  0.51560586  0.22826709  0.17371447  1
  Li  Li4  1  0.58497838  0.46116806  0.77479890  1
  Li  Li5  1  0.85345768  0.71790769  0.98777399  1
  P  P6  1  0.17337215  0.12388400  0.88363317  1
  P  P7  1  0.80861792  0.52034798  0.38221400  1
  S  S8  1  0.12221778  0.15296023  0.39558758  1
  S  S9  1  0.16443409  0.82577259  0.82190652  1
  S  S10  1  0.34421437  0.29575339  0.71051353  1
  S  S11  1  0.40156129  0.00408374  0.03280812  1
  S  S12  1  0.48451762  0.48576710  0.36630552  1
  S  S13  1  0.73846002  0.67793252  0.55528052  1
  S  S14  1  0.79653169  0.37440424  0.96157670  1
  S  S15  1  0.88854166  0.76035707  0.20967954  1
