# generated using pymatgen
data_Li3PS4
_symmetry_space_group_name_H-M   Pm
_cell_length_a   5.86826378
_cell_length_b   8.20454141
_cell_length_c   5.93809011
_cell_angle_alpha   90.00000000
_cell_angle_beta   93.29027213
_cell_angle_gamma   90.00000000
_symmetry_Int_Tables_number   6
_chemical_formula_structural   Li3PS4
_chemical_formula_sum   'Li6 P2 S8'
_cell_volume   285.42645959
_cell_formula_units_Z   2
loop_
 _symmetry_equiv_pos_site_id
 _symmetry_equiv_pos_as_xyz
  1  'x, y, z'
  2  'x, -y, z'
loop_
 _atom_site_type_symbol
 _atom_site_label
 _atom_site_symmetry_multiplicity
 _atom_site_fract_x
 _atom_site_fract_y
 _atom_site_fract_z
 _atom_site_occupancy
  Li  Li0  2  0.28108049  0.24885525  0.96753231  1
  Li  Li1  2  0.77566913  0.25535845  0.42182535  1
  Li  Li2  1  0.24644478  0.50000000  0.50146677  1
  Li  Li3  1  0.79515415  0.00000000  0.81823889  1
  P  P4  1  0.27515110  0.00000000  0.47522771  1
  P  P5  1  0.78904915  0.50000000  0.93453349  1
  S  S6  2  0.39120627  0.21238294  0.34385460  1
  S  S7  2  0.92200088  0.29828901  0.79091039  1
  S  S8  1  0.37351909  0.00000000  0.81082930  1
  S  S9  1  0.44466411  0.50000000  0.88100233  1
  S  S10  1  0.87497567  0.50000000  0.27023140  1
  S  S11  1  0.93001772  0.00000000  0.40836303  1
