# generated using pymatgen
data_Li3PS4
_symmetry_space_group_name_H-M   P1
_cell_length_a   5.86356622
_cell_length_b   5.87929573
_cell_length_c   9.92253988
_cell_angle_alpha   73.07885005
_cell_angle_beta   89.83788980
_cell_angle_gamma   60.39147706
_symmetry_Int_Tables_number   1
_chemical_formula_structural   Li3PS4
_chemical_formula_sum   'Li6 P2 S8'
_cell_volume   280.40784104
_cell_formula_units_Z   2
loop_
 _symmetry_equiv_pos_site_id
 _symmetry_equiv_pos_as_xyz
  1  'x, y, z'
loop_
 _atom_site_type_symbol
 _atom_site_label
 _atom_site_symmetry_multiplicity
 _atom_site_fract_x
 _atom_site_fract_y
 _atom_site_fract_z
 _atom_site_occupancy
  Li  Li0  1  0.22430569  0.54432983  0.78113226  1
  Li  Li1  1  0.25248458  0.66683521  0.34532296  1
  Li  Li2  1  0.50425190  0.01637460  0.56092703  1
  Li  Li3  1  0.64981301  0.82671526  0.93237479  1
  Li  Li4  1  0.84289334  0.21856232  0.98877515  1
  Li  Li5  1  0.86005907  0.41586202  0.28680570  1
  P  P6  1  0.47694076  0.14718429  0.16540791  1
  P  P7  1  0.84693079  0.31411840  0.66335881  1
  S  S8  1  0.13661217  0.39739450  0.60447906  1
  S  S9  1  0.26313358  0.19140173  0.98809859  1
  S  S10  1  0.31028443  0.05895471  0.33733462  1
  S  S11  1  0.48898720  0.49898309  0.13460299  1
  S  S12  1  0.57989555  0.61452866  0.74192529  1
  S  S13  1  0.69017969  0.29346837  0.48815689  1
  S  S14  1  0.85457941  0.83190693  0.17287840  1
  S  S15  1  0.97338543  0.95721861  0.82909576  1
