# generated using pymatgen
data_Li3PS4
_symmetry_space_group_name_H-M   Cc
_cell_length_a   8.10199092
_cell_length_b   8.68755188
_cell_length_c   7.98211812
_cell_angle_alpha   90.00000000
_cell_angle_beta   90.06794613
_cell_angle_gamma   90.00000000
_symmetry_Int_Tables_number   9
_chemical_formula_structural   Li3PS4
_chemical_formula_sum   'Li12 P4 S16'
_cell_volume   561.83269482
_cell_formula_units_Z   4
loop_
 _symmetry_equiv_pos_site_id
 _symmetry_equiv_pos_as_xyz
  1  'x, y, z'
  2  'x, -y, z+1/2'
  3  'x+1/2, y+1/2, z'
  4  'x+1/2, -y+1/2, z+1/2'
loop_
 _atom_site_type_symbol
 _atom_site_label
 _atom_site_symmetry_multiplicity
 _atom_site_fract_x
 _atom_site_fract_y
 _atom_site_fract_z
 _atom_site_occupancy
  Li  Li0  4  0.05232538  0.00130462  0.33980988  1
  Li  Li1  4  0.05383684  0.49973677  0.82134367  1
  Li  Li2  4  0.27644603  0.25104372  0.60809247  1
  P  P3  4  0.31060804  0.25061490  0.05959401  1
  S  S4  4  0.02541831  0.25231292  0.42726045  1
  S  S5  4  0.11037549  0.25227314  0.90548856  1
  S  S6  4  0.30000939  0.05173369  0.19506920  1
  S  S7  4  0.30744107  0.45041864  0.19302149  1
