# generated using pymatgen
data_Li3PS4
_symmetry_space_group_name_H-M   P1
_cell_length_a   5.84757586
_cell_length_b   5.86617852
_cell_length_c   10.02806871
_cell_angle_alpha   74.18052654
_cell_angle_beta   74.84006304
_cell_angle_gamma   60.69436612
_symmetry_Int_Tables_number   1
_chemical_formula_structural   Li3PS4
_chemical_formula_sum   'Li6 P2 S8'
_cell_volume   285.22429950
_cell_formula_units_Z   2
loop_
 _symmetry_equiv_pos_site_id
 _symmetry_equiv_pos_as_xyz
  1  'x, y, z'
loop_
 _atom_site_type_symbol
 _atom_site_label
 _atom_site_symmetry_multiplicity
 _atom_site_fract_x
 _atom_site_fract_y
 _atom_site_fract_z
 _atom_site_occupancy
  Li  Li0  1  0.22803401  0.15405226  0.29621927  1
  Li  Li1  1  0.33287786  0.19572888  0.91494950  1
  Li  Li2  1  0.46728158  0.42097282  0.55460195  1
  Li  Li3  1  0.73166233  0.66207803  0.80750522  1
  Li  Li4  1  0.85166839  0.70208074  0.43034644  1
  Li  Li5  1  0.96990020  0.90256204  0.05643311  1
  P  P6  1  0.10245906  0.04838339  0.67764183  1
  P  P7  1  0.59472854  0.54946602  0.17807555  1
  S  S8  1  0.06004399  0.42559701  0.64309082  1
  S  S9  1  0.22600106  0.56820938  0.21982968  1
  S  S10  1  0.27406883  0.82163875  0.85093335  1
  S  S11  1  0.34398107  0.87504015  0.50972646  1
  S  S12  1  0.55214801  0.92775428  0.12678949  1
  S  S13  1  0.73484791  0.07063101  0.70874144  1
  S  S14  1  0.77087099  0.33983604  0.35177964  1
  S  S15  1  0.83075191  0.35989615  0.01422999  1
