# generated using pymatgen
data_Li3PS4
_symmetry_space_group_name_H-M   P1
_cell_length_a   5.77256294
_cell_length_b   5.81118485
_cell_length_c   8.14931274
_cell_angle_alpha   94.73877910
_cell_angle_beta   92.11096019
_cell_angle_gamma   100.09315462
_symmetry_Int_Tables_number   1
_chemical_formula_structural   Li3PS4
_chemical_formula_sum   'Li6 P2 S8'
_cell_volume   267.85446585
_cell_formula_units_Z   2
loop_
 _symmetry_equiv_pos_site_id
 _symmetry_equiv_pos_as_xyz
  1  'x, y, z'
loop_
 _atom_site_type_symbol
 _atom_site_label
 _atom_site_symmetry_multiplicity
 _atom_site_fract_x
 _atom_site_fract_y
 _atom_site_fract_z
 _atom_site_occupancy
  Li  Li0  1  0.10047529  0.81295009  0.49569491  1
  Li  Li1  1  0.16975977  0.32411317  0.77229669  1
  Li  Li2  1  0.28614268  0.06891329  0.01174461  1
  Li  Li3  1  0.56800402  0.84716031  0.21761858  1
  Li  Li4  1  0.61726448  0.39534467  0.50511514  1
  Li  Li5  1  0.81326365  0.57904933  0.98546716  1
  P  P6  1  0.64964506  0.93519210  0.73986182  1
  P  P7  1  0.95459678  0.24913118  0.25582179  1
  S  S8  1  0.00786574  0.90891805  0.22119362  1
  S  S9  1  0.04519044  0.38711639  0.48955759  1
  S  S10  1  0.15325722  0.43493637  0.09114032  1
  S  S11  1  0.46527051  0.74386513  0.91017273  1
  S  S12  1  0.52495214  0.79105145  0.51296289  1
  S  S13  1  0.58874365  0.27064093  0.77984062  1
  S  S14  1  0.61240657  0.28610174  0.21351668  1
  S  S15  1  0.99385982  0.89900546  0.77388875  1
