# generated using pymatgen
data_Li3PS4
_symmetry_space_group_name_H-M   P1
_cell_length_a   5.81781920
_cell_length_b   5.91577206
_cell_length_c   10.05744867
_cell_angle_alpha   74.39931560
_cell_angle_beta   73.42183749
_cell_angle_gamma   60.67392366
_symmetry_Int_Tables_number   1
_chemical_formula_structural   Li3PS4
_chemical_formula_sum   'Li6 P2 S8'
_cell_volume   285.76385248
_cell_formula_units_Z   2
loop_
 _symmetry_equiv_pos_site_id
 _symmetry_equiv_pos_as_xyz
  1  'x, y, z'
loop_
 _atom_site_type_symbol
 _atom_site_label
 _atom_site_symmetry_multiplicity
 _atom_site_fract_x
 _atom_site_fract_y
 _atom_site_fract_z
 _atom_site_occupancy
  Li  Li0  1  0.00865689  0.15519302  0.44159677  1
  Li  Li1  1  0.07560474  0.29523924  0.10450832  1
  Li  Li2  1  0.33683264  0.32656690  0.69402766  1
  Li  Li3  1  0.60760944  0.58478434  0.90865433  1
  Li  Li4  1  0.68600180  0.80609903  0.51120544  1
  Li  Li5  1  0.76270182  0.91707002  0.17196230  1
  P  P6  1  0.01890764  0.91612271  0.80183302  1
  P  P7  1  0.38812086  0.51674641  0.30318697  1
  S  S8  1  0.02803145  0.21335130  0.86194038  1
  S  S9  1  0.07343560  0.88545416  0.28976139  1
  S  S10  1  0.30506100  0.27613669  0.47550235  1
  S  S11  1  0.39823431  0.66347045  0.72369947  1
  S  S12  1  0.46158645  0.36148865  0.13015117  1
  S  S13  1  0.71275162  0.54912215  0.31986101  1
  S  S14  1  0.79067949  0.03177808  0.65453902  1
  S  S15  1  0.84785718  0.74315962  0.97653417  1
