# generated using pymatgen
data_Li3PS4
_symmetry_space_group_name_H-M   P1
_cell_length_a   5.67178607
_cell_length_b   5.90905504
_cell_length_c   9.94858279
_cell_angle_alpha   77.03439877
_cell_angle_beta   73.66480102
_cell_angle_gamma   61.45809055
_symmetry_Int_Tables_number   1
_chemical_formula_structural   Li3PS4
_chemical_formula_sum   'Li6 P2 S8'
_cell_volume   279.47425894
_cell_formula_units_Z   2
loop_
 _symmetry_equiv_pos_site_id
 _symmetry_equiv_pos_as_xyz
  1  'x, y, z'
loop_
 _atom_site_type_symbol
 _atom_site_label
 _atom_site_symmetry_multiplicity
 _atom_site_fract_x
 _atom_site_fract_y
 _atom_site_fract_z
 _atom_site_occupancy
  Li  Li0  1  0.07412572  0.96640951  0.06494869  1
  Li  Li1  1  0.32303311  0.21398166  0.30654826  1
  Li  Li2  1  0.43399195  0.36583711  0.94710745  1
  Li  Li3  1  0.56896614  0.48278533  0.56242521  1
  Li  Li4  1  0.82183664  0.73100866  0.82195422  1
  Li  Li5  1  0.92561127  0.88079064  0.46866804  1
  P  P6  1  0.19319387  0.09075236  0.67635401  1
  P  P7  1  0.68833100  0.58152951  0.17617319  1
  S  S8  1  0.15205911  0.45873696  0.65013362  1
  S  S9  1  0.30464156  0.61171588  0.20984406  1
  S  S10  1  0.35453498  0.85209185  0.84356847  1
  S  S11  1  0.44407034  0.91888475  0.50011869  1
  S  S12  1  0.65363167  0.94912744  0.13685508  1
  S  S13  1  0.81061682  0.11858663  0.70223373  1
  S  S14  1  0.85207584  0.35626159  0.34508719  1
  S  S15  1  0.93553894  0.40203790  0.00154166  1
