# generated using pymatgen
data_Li3PS4
_symmetry_space_group_name_H-M   P1
_cell_length_a   5.72794477
_cell_length_b   5.73135950
_cell_length_c   8.29756228
_cell_angle_alpha   90.85010398
_cell_angle_beta   91.22538822
_cell_angle_gamma   97.86586333
_symmetry_Int_Tables_number   1
_chemical_formula_structural   Li3PS4
_chemical_formula_sum   'Li6 P2 S8'
_cell_volume   269.73186107
_cell_formula_units_Z   2
loop_
 _symmetry_equiv_pos_site_id
 _symmetry_equiv_pos_as_xyz
  1  'x, y, z'
loop_
 _atom_site_type_symbol
 _atom_site_label
 _atom_site_symmetry_multiplicity
 _atom_site_fract_x
 _atom_site_fract_y
 _atom_site_fract_z
 _atom_site_occupancy
  Li  Li0  1  0.23332149  0.95099865  0.15587895  1
  Li  Li1  1  0.35355844  0.55721527  0.36382278  1
  Li  Li2  1  0.39000118  0.12695917  0.65222312  1
  Li  Li3  1  0.73662702  0.42676971  0.15790287  1
  Li  Li4  1  0.75457740  0.87983552  0.88916357  1
  Li  Li5  1  0.93631064  0.58800519  0.63132193  1
  P  P6  1  0.23039280  0.44359258  0.92739632  1
  P  P7  1  0.75828824  0.95915522  0.40818029  1
  S  S8  1  0.03285528  0.24255878  0.75875145  1
  S  S9  1  0.10164996  0.90368329  0.43230355  1
  S  S10  1  0.12884461  0.33817453  0.15247988  1
  S  S11  1  0.17385267  0.78432547  0.88686513  1
  S  S12  1  0.57260136  0.39728606  0.88924277  1
  S  S13  1  0.58397511  0.77825552  0.59104100  1
  S  S14  1  0.61985924  0.82052598  0.19147556  1
  S  S15  1  0.69498290  0.29918191  0.43344359  1
