# generated using pymatgen
data_Li3PS4
_symmetry_space_group_name_H-M   Pm
_cell_length_a   5.89834463
_cell_length_b   8.08398366
_cell_length_c   6.01786943
_cell_angle_alpha   90.00000000
_cell_angle_beta   90.62805351
_cell_angle_gamma   90.00000000
_symmetry_Int_Tables_number   6
_chemical_formula_structural   Li3PS4
_chemical_formula_sum   'Li6 P2 S8'
_cell_volume   286.92754268
_cell_formula_units_Z   2
loop_
 _symmetry_equiv_pos_site_id
 _symmetry_equiv_pos_as_xyz
  1  'x, y, z'
  2  'x, -y, z'
loop_
 _atom_site_type_symbol
 _atom_site_label
 _atom_site_symmetry_multiplicity
 _atom_site_fract_x
 _atom_site_fract_y
 _atom_site_fract_z
 _atom_site_occupancy
  Li  Li0  2  0.47391711  0.25854750  0.71363020  1
  Li  Li1  2  0.97411540  0.24909417  0.25793164  1
  Li  Li2  1  0.48751214  0.00000000  0.08872665  1
  Li  Li3  1  0.93288527  0.50000000  0.80030783  1
  P  P4  1  0.49036563  0.50000000  0.21505201  1
  P  P5  1  0.97818467  0.00000000  0.75594698  1
  S  S6  2  0.09786280  0.21374942  0.62353548  1
  S  S7  2  0.62949275  0.29754732  0.06775463  1
  S  S8  1  0.07002282  0.00000000  0.08525034  1
  S  S9  1  0.15005620  0.50000000  0.16505672  1
  S  S10  1  0.57694109  0.50000000  0.54191898  1
  S  S11  1  0.63745333  0.00000000  0.69057688  1
