# generated using pymatgen
data_Li3PS4
_symmetry_space_group_name_H-M   Amm2
_cell_length_a   8.00272674
_cell_length_b   8.02746383
_cell_length_c   8.85143345
_cell_angle_alpha   90.00000000
_cell_angle_beta   90.00000000
_cell_angle_gamma   90.00000000
_symmetry_Int_Tables_number   38
_chemical_formula_structural   Li3PS4
_chemical_formula_sum   'Li12 P4 S16'
_cell_volume   568.63024204
_cell_formula_units_Z   4
loop_
 _symmetry_equiv_pos_site_id
 _symmetry_equiv_pos_as_xyz
  1  'x, y, z'
  2  '-x, -y, z'
  3  '-x, y, z'
  4  'x, -y, z'
  5  'x, y+1/2, z+1/2'
  6  '-x, -y+1/2, z+1/2'
  7  '-x, y+1/2, z+1/2'
  8  'x, -y+1/2, z+1/2'
loop_
 _atom_site_type_symbol
 _atom_site_label
 _atom_site_symmetry_multiplicity
 _atom_site_fract_x
 _atom_site_fract_y
 _atom_site_fract_z
 _atom_site_occupancy
  Li  Li0  8  0.24969470  0.24781693  0.80889300  1
  Li  Li1  2  0.00000000  0.00000000  0.06478427  1
  Li  Li2  2  0.50000000  0.00000000  0.55451917  1
  P  P3  2  0.00000000  0.00000000  0.55731308  1
  P  P4  2  0.50000000  0.00000000  0.06121371  1
  S  S5  4  0.00000000  0.21014995  0.68442042  1
  S  S6  4  0.20874889  0.00000000  0.42787802  1
  S  S7  4  0.28734999  0.00000000  0.93535590  1
  S  S8  4  0.50000000  0.21199344  0.18764002  1
