# generated using pymatgen
data_Li3PS4
_symmetry_space_group_name_H-M   P1
_cell_length_a   5.79393999
_cell_length_b   5.96303270
_cell_length_c   9.99107068
_cell_angle_alpha   75.43255287
_cell_angle_beta   73.37696458
_cell_angle_gamma   61.16320350
_symmetry_Int_Tables_number   1
_chemical_formula_structural   Li3PS4
_chemical_formula_sum   'Li6 P2 S8'
_cell_volume   287.08171267
_cell_formula_units_Z   2
loop_
 _symmetry_equiv_pos_site_id
 _symmetry_equiv_pos_as_xyz
  1  'x, y, z'
loop_
 _atom_site_type_symbol
 _atom_site_label
 _atom_site_symmetry_multiplicity
 _atom_site_fract_x
 _atom_site_fract_y
 _atom_site_fract_z
 _atom_site_occupancy
  Li  Li0  1  0.20904418  0.56560012  0.97900177  1
  Li  Li1  1  0.22832633  0.34417627  0.34590139  1
  Li  Li2  1  0.38498121  0.68711008  0.60362855  1
  Li  Li3  1  0.61314842  0.95637507  0.83082840  1
  Li  Li4  1  0.92244162  0.92810313  0.43060210  1
  Li  Li5  1  0.94507037  0.10788811  0.09931000  1
  P  P6  1  0.60533182  0.71683662  0.22574253  1
  P  P7  1  0.96538905  0.34129688  0.72941465  1
  S  S8  1  0.16157747  0.48784313  0.55448833  1
  S  S9  1  0.16666729  0.24091816  0.88821518  1
  S  S10  1  0.26783962  0.71121863  0.20391218  1
  S  S11  1  0.52409304  0.90796663  0.38846134  1
  S  S12  1  0.58329955  0.60874371  0.79036258  1
  S  S13  1  0.74127045  0.90156520  0.04404105  1
  S  S14  1  0.88894695  0.34789535  0.26416004  1
  S  S15  1  0.96133295  0.03346263  0.67899824  1
