# generated using pymatgen
data_Li3PS4
_symmetry_space_group_name_H-M   P1
_cell_length_a   5.82004966
_cell_length_b   5.82788203
_cell_length_c   9.87677031
_cell_angle_alpha   73.79113257
_cell_angle_beta   75.58825780
_cell_angle_gamma   61.65069435
_symmetry_Int_Tables_number   1
_chemical_formula_structural   Li3PS4
_chemical_formula_sum   'Li6 P2 S8'
_cell_volume   280.41342619
_cell_formula_units_Z   2
loop_
 _symmetry_equiv_pos_site_id
 _symmetry_equiv_pos_as_xyz
  1  'x, y, z'
loop_
 _atom_site_type_symbol
 _atom_site_label
 _atom_site_symmetry_multiplicity
 _atom_site_fract_x
 _atom_site_fract_y
 _atom_site_fract_z
 _atom_site_occupancy
  Li  Li0  1  0.20047500  0.37623459  0.29266698  1
  Li  Li1  1  0.22461011  0.68276453  0.91031962  1
  Li  Li2  1  0.49065726  0.56900936  0.56960386  1
  Li  Li3  1  0.72421784  0.79008181  0.84910470  1
  Li  Li4  1  0.87995905  0.89175667  0.47632865  1
  Li  Li5  1  0.90991693  0.14689305  0.07272419  1
  P  P6  1  0.08662256  0.21535813  0.68045036  1
  P  P7  1  0.56848337  0.77631604  0.19082560  1
  S  S8  1  0.10258240  0.54899045  0.69835459  1
  S  S9  1  0.35918188  0.62736190  0.35468307  1
  S  S10  1  0.36636381  0.93964850  0.02119783  1
  S  S11  1  0.45584299  0.90868930  0.67161784  1
  S  S12  1  0.62397801  0.04194910  0.25925775  1
  S  S13  1  0.83283207  0.13638240  0.84911027  1
  S  S14  1  0.92939692  0.28937044  0.50205617  1
  S  S15  1  0.93306600  0.50550306  0.11481140  1
