# generated using pymatgen
data_Li3PS4
_symmetry_space_group_name_H-M   P1
_cell_length_a   5.82892058
_cell_length_b   5.85485347
_cell_length_c   10.01334884
_cell_angle_alpha   73.56275577
_cell_angle_beta   74.81029536
_cell_angle_gamma   60.71109035
_symmetry_Int_Tables_number   1
_chemical_formula_structural   Li3PS4
_chemical_formula_sum   'Li6 P2 S8'
_cell_volume   282.72694706
_cell_formula_units_Z   2
loop_
 _symmetry_equiv_pos_site_id
 _symmetry_equiv_pos_as_xyz
  1  'x, y, z'
loop_
 _atom_site_type_symbol
 _atom_site_label
 _atom_site_symmetry_multiplicity
 _atom_site_fract_x
 _atom_site_fract_y
 _atom_site_fract_z
 _atom_site_occupancy
  Li  Li0  1  0.24287437  0.08726028  0.32603507  1
  Li  Li1  1  0.37679988  0.21233780  0.95716645  1
  Li  Li2  1  0.43655382  0.41483792  0.55522911  1
  Li  Li3  1  0.71385978  0.66924103  0.78271424  1
  Li  Li4  1  0.84843725  0.68674207  0.40037054  1
  Li  Li5  1  0.99532362  0.88145136  0.04653949  1
  P  P6  1  0.08440480  0.06413564  0.67711571  1
  P  P7  1  0.60316360  0.50648870  0.16659419  1
  S  S8  1  0.13975072  0.33223585  0.73971758  1
  S  S9  1  0.35010098  0.42570722  0.33505747  1
  S  S10  1  0.44152668  0.59248104  0.99105807  1
  S  S11  1  0.44753697  0.76777431  0.61527676  1
  S  S12  1  0.62955046  0.82993533  0.18988168  1
  S  S13  1  0.85749636  0.93343659  0.83873068  1
  S  S14  1  0.89356790  0.21858126  0.50505962  1
  S  S15  1  0.97741354  0.20208118  0.15087233  1
