# generated using pymatgen
data_Li3PS4
_symmetry_space_group_name_H-M   P1
_cell_length_a   5.72924626
_cell_length_b   5.90197185
_cell_length_c   9.95798256
_cell_angle_alpha   75.57127186
_cell_angle_beta   74.10543466
_cell_angle_gamma   61.21584300
_symmetry_Int_Tables_number   1
_chemical_formula_structural   Li3PS4
_chemical_formula_sum   'Li6 P2 S8'
_cell_volume   281.06806019
_cell_formula_units_Z   2
loop_
 _symmetry_equiv_pos_site_id
 _symmetry_equiv_pos_as_xyz
  1  'x, y, z'
loop_
 _atom_site_type_symbol
 _atom_site_label
 _atom_site_symmetry_multiplicity
 _atom_site_fract_x
 _atom_site_fract_y
 _atom_site_fract_z
 _atom_site_occupancy
  Li  Li0  1  0.21384971  0.28564079  0.28211620  1
  Li  Li1  1  0.36787575  0.31313778  0.93485710  1
  Li  Li2  1  0.49247535  0.53230975  0.53738640  1
  Li  Li3  1  0.76857805  0.76544327  0.76119077  1
  Li  Li4  1  0.81836150  0.99239998  0.36376941  1
  Li  Li5  1  0.97171595  0.04624748  0.00568332  1
  P  P6  1  0.10715540  0.14639224  0.64754830  1
  P  P7  1  0.62200447  0.65840385  0.14950283  1
  S  S8  1  0.06615218  0.87263143  0.57869181  1
  S  S9  1  0.25025595  0.97463549  0.16081391  1
  S  S10  1  0.30440750  0.00989420  0.81327054  1
  S  S11  1  0.33140960  0.28004576  0.48327016  1
  S  S12  1  0.58226524  0.33888508  0.13566377  1
  S  S13  1  0.72897162  0.42005006  0.71823673  1
  S  S14  1  0.77178309  0.60164523  0.32444507  1
  S  S15  1  0.89240496  0.71173487  0.97854750  1
