# generated using pymatgen
data_Li3PS4
_symmetry_space_group_name_H-M   P1
_cell_length_a   5.79315379
_cell_length_b   5.83503105
_cell_length_c   9.70553440
_cell_angle_alpha   78.16347313
_cell_angle_beta   75.41599281
_cell_angle_gamma   61.54651930
_symmetry_Int_Tables_number   1
_chemical_formula_structural   Li3PS4
_chemical_formula_sum   'Li6 P2 S8'
_cell_volume   277.75262227
_cell_formula_units_Z   2
loop_
 _symmetry_equiv_pos_site_id
 _symmetry_equiv_pos_as_xyz
  1  'x, y, z'
loop_
 _atom_site_type_symbol
 _atom_site_label
 _atom_site_symmetry_multiplicity
 _atom_site_fract_x
 _atom_site_fract_y
 _atom_site_fract_z
 _atom_site_occupancy
  Li  Li0  1  0.05468089  0.42344705  0.19041036  1
  Li  Li1  1  0.18122548  0.63651594  0.76050494  1
  Li  Li2  1  0.45025123  0.86647530  0.95331945  1
  Li  Li3  1  0.58207060  0.97185052  0.55752748  1
  Li  Li4  1  0.71343718  0.06361496  0.18200030  1
  Li  Li5  1  0.96673420  0.34745373  0.52038742  1
  P  P6  1  0.31661513  0.72532564  0.36545966  1
  P  P7  1  0.87034942  0.27071584  0.86422110  1
  S  S8  1  0.05912135  0.89253040  0.54350298  1
  S  S9  1  0.16696041  0.96619874  0.19365838  1
  S  S10  1  0.25136688  0.20549220  0.77737937  1
  S  S11  1  0.35724564  0.35592389  0.36610883  1
  S  S12  1  0.63900520  0.51548525  0.71916593  1
  S  S13  1  0.68447758  0.70055371  0.36053198  1
  S  S14  1  0.73767805  0.45078404  0.04595028  1
  S  S15  1  0.85166181  0.92191504  0.92829041  1
