# generated using pymatgen
data_Li3PS4
_symmetry_space_group_name_H-M   P1
_cell_length_a   5.77219567
_cell_length_b   5.85473401
_cell_length_c   9.86165004
_cell_angle_alpha   76.31103716
_cell_angle_beta   73.67428698
_cell_angle_gamma   61.80975350
_symmetry_Int_Tables_number   1
_chemical_formula_structural   Li3PS4
_chemical_formula_sum   'Li6 P2 S8'
_cell_volume   279.76290371
_cell_formula_units_Z   2
loop_
 _symmetry_equiv_pos_site_id
 _symmetry_equiv_pos_as_xyz
  1  'x, y, z'
loop_
 _atom_site_type_symbol
 _atom_site_label
 _atom_site_symmetry_multiplicity
 _atom_site_fract_x
 _atom_site_fract_y
 _atom_site_fract_z
 _atom_site_occupancy
  Li  Li0  1  0.02747784  0.86438811  0.47986843  1
  Li  Li1  1  0.14781499  0.59663184  0.81757133  1
  Li  Li2  1  0.24709443  0.09865929  0.76087935  1
  Li  Li3  1  0.35599575  0.25138757  0.38478345  1
  Li  Li4  1  0.60712072  0.28563606  0.98047506  1
  Li  Li5  1  0.84393070  0.57186939  0.19975667  1
  P  P6  1  0.24672908  0.93856126  0.09813822  1
  P  P7  1  0.68213360  0.45882803  0.58708027  1
  S  S8  1  0.02028260  0.47221634  0.60489354  1
  S  S9  1  0.09840129  0.73010130  0.26158526  1
  S  S10  1  0.37520292  0.82619135  0.57988350  1
  S  S11  1  0.41308219  0.73777542  0.92652889  1
  S  S12  1  0.51433039  0.99549706  0.16605353  1
  S  S13  1  0.60255598  0.20718036  0.75438831  1
  S  S14  1  0.75910752  0.30089641  0.40756182  1
  S  S15  1  0.97456455  0.29965602  0.02291220  1
