# generated using pymatgen
data_Li3PS4
_symmetry_space_group_name_H-M   C2
_cell_length_a   10.44020653
_cell_length_b   5.69194178
_cell_length_c   10.36107091
_cell_angle_alpha   90.00000000
_cell_angle_beta   113.87801577
_cell_angle_gamma   90.00000000
_symmetry_Int_Tables_number   5
_chemical_formula_structural   Li3PS4
_chemical_formula_sum   'Li12 P4 S16'
_cell_volume   563.00835363
_cell_formula_units_Z   4
loop_
 _symmetry_equiv_pos_site_id
 _symmetry_equiv_pos_as_xyz
  1  'x, y, z'
  2  '-x, y, -z'
  3  'x+1/2, y+1/2, z'
  4  '-x+1/2, y+1/2, -z'
loop_
 _atom_site_type_symbol
 _atom_site_label
 _atom_site_symmetry_multiplicity
 _atom_site_fract_x
 _atom_site_fract_y
 _atom_site_fract_z
 _atom_site_occupancy
  Li  Li0  4  0.11981330  0.10762118  0.36078380  1
  Li  Li1  4  0.13603391  0.57654915  0.88691398  1
  Li  Li2  4  0.22373358  0.60951047  0.28661879  1
  P  P3  2  0.00000000  0.10310278  0.00000000  1
  P  P4  2  0.00000000  0.57781100  0.50000000  1
  S  S5  4  0.01447306  0.89077754  0.16437958  1
  S  S6  4  0.06246220  0.36615727  0.67454629  1
  S  S7  4  0.16573715  0.78615864  0.51437754  1
  S  S8  4  0.17570013  0.31652342  0.07274611  1
