# generated using pymatgen
data_Li3PS4
_symmetry_space_group_name_H-M   C2
_cell_length_a   10.68198939
_cell_length_b   5.59325715
_cell_length_c   10.65640348
_cell_angle_alpha   90.00000000
_cell_angle_beta   116.71221878
_cell_angle_gamma   90.00000000
_symmetry_Int_Tables_number   5
_chemical_formula_structural   Li3PS4
_chemical_formula_sum   'Li12 P4 S16'
_cell_volume   568.73902603
_cell_formula_units_Z   4
loop_
 _symmetry_equiv_pos_site_id
 _symmetry_equiv_pos_as_xyz
  1  'x, y, z'
  2  '-x, y, -z'
  3  'x+1/2, y+1/2, z'
  4  '-x+1/2, y+1/2, -z'
loop_
 _atom_site_type_symbol
 _atom_site_label
 _atom_site_symmetry_multiplicity
 _atom_site_fract_x
 _atom_site_fract_y
 _atom_site_fract_z
 _atom_site_occupancy
  Li  Li0  4  0.12101919  0.54591064  0.87017288  1
  Li  Li1  4  0.13105335  0.02993888  0.38118798  1
  Li  Li2  4  0.23898713  0.04079329  0.76369073  1
  P  P3  2  0.00000000  0.03190402  0.00000000  1
  P  P4  2  0.00000000  0.54320067  0.50000000  1
  S  S5  4  0.03344558  0.32920163  0.66698768  1
  S  S6  4  0.05418589  0.81891636  0.17173764  1
  S  S7  4  0.16672269  0.24460244  0.03200742  1
  S  S8  4  0.17093184  0.75734439  0.55716027  1
