# generated using pymatgen
data_Li3PS4
_symmetry_space_group_name_H-M   P1
_cell_length_a   5.81563360
_cell_length_b   5.83077463
_cell_length_c   9.88661852
_cell_angle_alpha   74.17490792
_cell_angle_beta   75.54646241
_cell_angle_gamma   61.87464451
_symmetry_Int_Tables_number   1
_chemical_formula_structural   Li3PS4
_chemical_formula_sum   'Li6 P2 S8'
_cell_volume   281.54923391
_cell_formula_units_Z   2
loop_
 _symmetry_equiv_pos_site_id
 _symmetry_equiv_pos_as_xyz
  1  'x, y, z'
loop_
 _atom_site_type_symbol
 _atom_site_label
 _atom_site_symmetry_multiplicity
 _atom_site_fract_x
 _atom_site_fract_y
 _atom_site_fract_z
 _atom_site_occupancy
  Li  Li0  1  0.01721971  0.72028049  0.03475552  1
  Li  Li1  1  0.28199829  0.61375820  0.69168861  1
  Li  Li2  1  0.51397089  0.83970345  0.96888418  1
  Li  Li3  1  0.67496761  0.93121797  0.60000592  1
  Li  Li4  1  0.70562640  0.18470383  0.19796973  1
  Li  Li5  1  0.99327273  0.41285150  0.41766394  1
  P  P6  1  0.36383612  0.81353413  0.31481707  1
  P  P7  1  0.87907985  0.25784540  0.80497482  1
  S  S8  1  0.15283598  0.66590828  0.47816232  1
  S  S9  1  0.16164985  0.97387525  0.14600358  1
  S  S10  1  0.24807395  0.95327014  0.79362329  1
  S  S11  1  0.41710413  0.08045669  0.38382063  1
  S  S12  1  0.62755557  0.17800831  0.97440366  1
  S  S13  1  0.72058673  0.33031287  0.62761796  1
  S  S14  1  0.72898765  0.54369885  0.23957647  1
  S  S15  1  0.89579376  0.59149949  0.82280833  1
