# generated using pymatgen
data_Li3PS4
_symmetry_space_group_name_H-M   P1
_cell_length_a   5.68672187
_cell_length_b   5.93946232
_cell_length_c   9.97296465
_cell_angle_alpha   76.90388991
_cell_angle_beta   73.72705110
_cell_angle_gamma   61.52140007
_symmetry_Int_Tables_number   1
_chemical_formula_structural   Li3PS4
_chemical_formula_sum   'Li6 P2 S8'
_cell_volume   282.49488479
_cell_formula_units_Z   2
loop_
 _symmetry_equiv_pos_site_id
 _symmetry_equiv_pos_as_xyz
  1  'x, y, z'
loop_
 _atom_site_type_symbol
 _atom_site_label
 _atom_site_symmetry_multiplicity
 _atom_site_fract_x
 _atom_site_fract_y
 _atom_site_fract_z
 _atom_site_occupancy
  Li  Li0  1  0.02417182  0.72899588  0.64758172  1
  Li  Li1  1  0.14540347  0.92826579  0.25441422  1
  Li  Li2  1  0.41980829  0.16102481  0.48296956  1
  Li  Li3  1  0.48311787  0.37630755  0.08653717  1
  Li  Li4  1  0.63036008  0.44040370  0.72771441  1
  Li  Li5  1  0.86709014  0.69073069  0.99886829  1
  P  P6  1  0.27447937  0.05983057  0.86746292  1
  P  P7  1  0.76075660  0.54511415  0.36603920  1
  S  S8  1  0.23239434  0.74583992  0.84896394  1
  S  S9  1  0.37875992  0.82220209  0.43401254  1
  S  S10  1  0.42298827  0.00299077  0.04196281  1
  S  S11  1  0.54724736  0.11281340  0.69664098  1
  S  S12  1  0.71860283  0.26771575  0.30068705  1
  S  S13  1  0.90132810  0.37344395  0.88308689  1
  S  S14  1  0.95453614  0.42282800  0.53034722  1
  S  S15  1  0.99064258  0.66930315  0.20070751  1
