# generated using pymatgen
data_Li3PS4
_symmetry_space_group_name_H-M   P1
_cell_length_a   5.78780809
_cell_length_b   5.83872459
_cell_length_c   9.78169554
_cell_angle_alpha   76.58998574
_cell_angle_beta   74.16077156
_cell_angle_gamma   62.04887468
_symmetry_Int_Tables_number   1
_chemical_formula_structural   Li3PS4
_chemical_formula_sum   'Li6 P2 S8'
_cell_volume   278.79900946
_cell_formula_units_Z   2
loop_
 _symmetry_equiv_pos_site_id
 _symmetry_equiv_pos_as_xyz
  1  'x, y, z'
loop_
 _atom_site_type_symbol
 _atom_site_label
 _atom_site_symmetry_multiplicity
 _atom_site_fract_x
 _atom_site_fract_y
 _atom_site_fract_z
 _atom_site_occupancy
  Li  Li0  1  0.03171300  0.96259985  0.94484681  1
  Li  Li1  1  0.18916366  0.26202966  0.23434734  1
  Li  Li2  1  0.34176140  0.98302210  0.56425271  1
  Li  Li3  1  0.41749163  0.48917637  0.51617673  1
  Li  Li4  1  0.53163325  0.64317616  0.13497365  1
  Li  Li5  1  0.79624083  0.66643487  0.72850877  1
  P  P6  1  0.43586721  0.32311733  0.84898265  1
  P  P7  1  0.85704600  0.85001674  0.33494236  1
  S  S8  1  0.16561617  0.68131101  0.76929431  1
  S  S9  1  0.19371653  0.86302951  0.35507596  1
  S  S10  1  0.28498143  0.11773699  0.01240109  1
  S  S11  1  0.54854424  0.21623608  0.33110159  1
  S  S12  1  0.60750304  0.12068930  0.67691554  1
  S  S13  1  0.69819340  0.38578538  0.91915840  1
  S  S14  1  0.78318069  0.59136180  0.50054479  1
  S  S15  1  0.93247086  0.69715234  0.15233588  1
