# generated using pymatgen
data_Li3PS4
_symmetry_space_group_name_H-M   P1
_cell_length_a   5.80363466
_cell_length_b   5.84677467
_cell_length_c   9.75280335
_cell_angle_alpha   77.79694877
_cell_angle_beta   74.61779652
_cell_angle_gamma   61.25018742
_symmetry_Int_Tables_number   1
_chemical_formula_structural   Li3PS4
_chemical_formula_sum   'Li6 P2 S8'
_cell_volume   278.37094793
_cell_formula_units_Z   2
loop_
 _symmetry_equiv_pos_site_id
 _symmetry_equiv_pos_as_xyz
  1  'x, y, z'
loop_
 _atom_site_type_symbol
 _atom_site_label
 _atom_site_symmetry_multiplicity
 _atom_site_fract_x
 _atom_site_fract_y
 _atom_site_fract_z
 _atom_site_occupancy
  Li  Li0  1  0.03699991  0.43512561  0.44046501  1
  Li  Li1  1  0.17070264  0.54488785  0.04702574  1
  Li  Li2  1  0.44988517  0.76751624  0.23184460  1
  Li  Li3  1  0.56624726  0.99476871  0.79624100  1
  Li  Li4  1  0.65003820  0.05859149  0.46223505  1
  Li  Li5  1  0.90591872  0.34586726  0.81121467  1
  P  P6  1  0.30498373  0.68372909  0.62769762  1
  P  P7  1  0.75595911  0.13158118  0.12762797  1
  S  S8  1  0.26449746  0.05279896  0.62661835  1
  S  S9  1  0.37517315  0.19856401  0.22222203  1
  S  S10  1  0.45115197  0.44575864  0.80003323  1
  S  S11  1  0.56683667  0.51340171  0.45011783  1
  S  S12  1  0.77746772  0.47857383  0.06349067  1
  S  S13  1  0.87777410  0.95503763  0.94618804  1
  S  S14  1  0.93726313  0.71109573  0.63107106  1
  S  S15  1  0.99413301  0.87918672  0.26745739  1
