# generated using pymatgen
data_Li3PS4
_symmetry_space_group_name_H-M   C2
_cell_length_a   10.66721780
_cell_length_b   5.60063697
_cell_length_c   10.67027229
_cell_angle_alpha   90.00000000
_cell_angle_beta   116.71257291
_cell_angle_gamma   90.00000000
_symmetry_Int_Tables_number   5
_chemical_formula_structural   Li3PS4
_chemical_formula_sum   'Li12 P4 S16'
_cell_volume   569.44027740
_cell_formula_units_Z   4
loop_
 _symmetry_equiv_pos_site_id
 _symmetry_equiv_pos_as_xyz
  1  'x, y, z'
  2  '-x, y, -z'
  3  'x+1/2, y+1/2, z'
  4  '-x+1/2, y+1/2, -z'
loop_
 _atom_site_type_symbol
 _atom_site_label
 _atom_site_symmetry_multiplicity
 _atom_site_fract_x
 _atom_site_fract_y
 _atom_site_fract_z
 _atom_site_occupancy
  Li  Li0  4  0.12314086  0.32415043  0.87549747  1
  Li  Li1  4  0.12808730  0.82102306  0.37485099  1
  Li  Li2  4  0.24462939  0.82050194  0.75171628  1
  P  P3  2  0.00000000  0.32395999  0.50000000  1
  P  P4  2  0.00000000  0.81906135  0.00000000  1
  S  S5  4  0.04001969  0.10964102  0.66804785  1
  S  S6  4  0.04740619  0.60743032  0.17083576  1
  S  S7  4  0.16888641  0.03261736  0.04143883  1
  S  S8  4  0.17218207  0.53862270  0.54611887  1
