# generated using pymatgen
data_Li3PS4
_symmetry_space_group_name_H-M   C2
_cell_length_a   10.48098630
_cell_length_b   5.67622817
_cell_length_c   10.45685838
_cell_angle_alpha   90.00000000
_cell_angle_beta   114.23626545
_cell_angle_gamma   90.00000000
_symmetry_Int_Tables_number   5
_chemical_formula_structural   Li3PS4
_chemical_formula_sum   'Li12 P4 S16'
_cell_volume   567.27234774
_cell_formula_units_Z   4
loop_
 _symmetry_equiv_pos_site_id
 _symmetry_equiv_pos_as_xyz
  1  'x, y, z'
  2  '-x, y, -z'
  3  'x+1/2, y+1/2, z'
  4  '-x+1/2, y+1/2, -z'
loop_
 _atom_site_type_symbol
 _atom_site_label
 _atom_site_symmetry_multiplicity
 _atom_site_fract_x
 _atom_site_fract_y
 _atom_site_fract_z
 _atom_site_occupancy
  Li  Li0  4  0.12465334  0.44624189  0.37023048  1
  Li  Li1  4  0.12920829  0.93456305  0.87986102  1
  Li  Li2  4  0.24030707  0.94160055  0.26116078  1
  P  P3  2  0.00000000  0.44341926  0.00000000  1
  P  P4  2  0.00000000  0.93680552  0.50000000  1
  S  S5  4  0.03442403  0.23028918  0.16772182  1
  S  S6  4  0.05093567  0.72400296  0.67042978  1
  S  S7  4  0.16584973  0.14722270  0.53322838  1
  S  S8  4  0.17119913  0.65381632  0.05173155  1
