# generated using pymatgen
data_Li3PS4
_symmetry_space_group_name_H-M   P1
_cell_length_a   5.81134230
_cell_length_b   5.85615736
_cell_length_c   9.75459837
_cell_angle_alpha   77.69585644
_cell_angle_beta   74.38562787
_cell_angle_gamma   61.07340410
_symmetry_Int_Tables_number   1
_chemical_formula_structural   Li3PS4
_chemical_formula_sum   'Li6 P2 S8'
_cell_volume   278.47354273
_cell_formula_units_Z   2
loop_
 _symmetry_equiv_pos_site_id
 _symmetry_equiv_pos_as_xyz
  1  'x, y, z'
loop_
 _atom_site_type_symbol
 _atom_site_label
 _atom_site_symmetry_multiplicity
 _atom_site_fract_x
 _atom_site_fract_y
 _atom_site_fract_z
 _atom_site_occupancy
  Li  Li0  1  0.00741793  0.68729643  0.50120998  1
  Li  Li1  1  0.13959126  0.77968214  0.13210736  1
  Li  Li2  1  0.39343161  0.06471279  0.48141820  1
  Li  Li3  1  0.48035231  0.12887858  0.14600510  1
  Li  Li4  1  0.59130032  0.35681137  0.71148140  1
  Li  Li5  1  0.87290987  0.57956553  0.89381685  1
  P  P6  1  0.28674682  0.99413574  0.81505451  1
  P  P7  1  0.73906522  0.44026270  0.31469479  1
  S  S8  1  0.04656921  0.24801970  0.67627930  1
  S  S9  1  0.10706351  0.41164944  0.31125573  1
  S  S10  1  0.16846197  0.17080323  0.99612982  1
  S  S11  1  0.26427269  0.64836064  0.87967230  1
  S  S12  1  0.47611890  0.61031202  0.49274596  1
  S  S13  1  0.59368328  0.67855434  0.14241828  1
  S  S14  1  0.66750049  0.92616907  0.71791930  1
  S  S15  1  0.77923285  0.07142450  0.31586092  1
