# generated using pymatgen
data_Li3PS4
_symmetry_space_group_name_H-M   P1
_cell_length_a   5.73496405
_cell_length_b   5.83343331
_cell_length_c   9.88653521
_cell_angle_alpha   76.83009810
_cell_angle_beta   74.32475504
_cell_angle_gamma   61.55662613
_symmetry_Int_Tables_number   1
_chemical_formula_structural   Li3PS4
_chemical_formula_sum   'Li6 P2 S8'
_cell_volume   278.08077674
_cell_formula_units_Z   2
loop_
 _symmetry_equiv_pos_site_id
 _symmetry_equiv_pos_as_xyz
  1  'x, y, z'
loop_
 _atom_site_type_symbol
 _atom_site_label
 _atom_site_symmetry_multiplicity
 _atom_site_fract_x
 _atom_site_fract_y
 _atom_site_fract_z
 _atom_site_occupancy
  Li  Li0  1  0.07201616  0.81727846  0.58130902  1
  Li  Li1  1  0.08014751  0.96131195  0.25295653  1
  Li  Li2  1  0.27995914  0.22299200  0.54951921  1
  Li  Li3  1  0.38750814  0.35411973  0.16593080  1
  Li  Li4  1  0.60907784  0.39802210  0.76591418  1
  Li  Li5  1  0.85913011  0.67306338  0.98553499  1
  P  P6  1  0.25905847  0.04549725  0.88039878  1
  P  P7  1  0.72249013  0.55375823  0.37439069  1
  S  S8  1  0.05859739  0.58109823  0.38752595  1
  S  S9  1  0.12078919  0.82978984  0.04190156  1
  S  S10  1  0.40821511  0.92193772  0.37083042  1
  S  S11  1  0.41781221  0.84782444  0.70753620  1
  S  S12  1  0.53246829  0.09821837  0.94848208  1
  S  S13  1  0.66456342  0.28823282  0.53820831  1
  S  S14  1  0.79376737  0.40027960  0.19391083  1
  S  S15  1  0.98505955  0.40815734  0.80767404  1
