# generated using pymatgen
data_Li3PS4
_symmetry_space_group_name_H-M   P1
_cell_length_a   5.80342149
_cell_length_b   5.87031757
_cell_length_c   9.80009721
_cell_angle_alpha   76.92859373
_cell_angle_beta   74.05594028
_cell_angle_gamma   60.96159439
_symmetry_Int_Tables_number   1
_chemical_formula_structural   Li3PS4
_chemical_formula_sum   'Li6 P2 S8'
_cell_volume   278.95419310
_cell_formula_units_Z   2
loop_
 _symmetry_equiv_pos_site_id
 _symmetry_equiv_pos_as_xyz
  1  'x, y, z'
loop_
 _atom_site_type_symbol
 _atom_site_label
 _atom_site_symmetry_multiplicity
 _atom_site_fract_x
 _atom_site_fract_y
 _atom_site_fract_z
 _atom_site_occupancy
  Li  Li0  1  0.07473283  0.52912329  0.04623057  1
  Li  Li1  1  0.32733003  0.78483288  0.35927566  1
  Li  Li2  1  0.44894085  0.90819151  0.97634659  1
  Li  Li3  1  0.58221812  0.96486238  0.57039845  1
  Li  Li4  1  0.82903764  0.23342616  0.77926776  1
  Li  Li5  1  0.99037006  0.40456666  0.37005357  1
  P  P6  1  0.15064109  0.59641835  0.68198829  1
  P  P7  1  0.72295769  0.13049662  0.17474454  1
  S  S8  1  0.16511469  0.94760877  0.61159712  1
  S  S9  1  0.31326335  0.40537140  0.50425278  1
  S  S10  1  0.35361478  0.15200398  0.18660766  1
  S  S11  1  0.36471430  0.37189694  0.83626245  1
  S  S12  1  0.67853384  0.49690075  0.17749657  1
  S  S13  1  0.76334091  0.66328470  0.75853331  1
  S  S14  1  0.88248426  0.87310552  0.34101784  1
  S  S15  1  0.97299047  0.97686392  0.99262392  1
