# generated using pymatgen
data_Li3PS4
_symmetry_space_group_name_H-M   C2
_cell_length_a   10.42977857
_cell_length_b   5.70180433
_cell_length_c   10.31736024
_cell_angle_alpha   90.00000000
_cell_angle_beta   113.21819516
_cell_angle_gamma   90.00000000
_symmetry_Int_Tables_number   5
_chemical_formula_structural   Li3PS4
_chemical_formula_sum   'Li12 P4 S16'
_cell_volume   563.86653425
_cell_formula_units_Z   4
loop_
 _symmetry_equiv_pos_site_id
 _symmetry_equiv_pos_as_xyz
  1  'x, y, z'
  2  '-x, y, -z'
  3  'x+1/2, y+1/2, z'
  4  '-x+1/2, y+1/2, -z'
loop_
 _atom_site_type_symbol
 _atom_site_label
 _atom_site_symmetry_multiplicity
 _atom_site_fract_x
 _atom_site_fract_y
 _atom_site_fract_z
 _atom_site_occupancy
  Li  Li0  4  0.12252746  0.53988443  0.86330571  1
  Li  Li1  4  0.13443892  0.06689590  0.38853817  1
  Li  Li2  4  0.22608416  0.03749759  0.78365910  1
  P  P3  2  0.00000000  0.06663128  0.00000000  1
  P  P4  2  0.00000000  0.54424165  0.50000000  1
  S  S5  4  0.01863331  0.75712260  0.66377121  1
  S  S6  4  0.06294154  0.27491671  0.17309452  1
  S  S7  4  0.16136888  0.85958020  0.01534559  1
  S  S8  4  0.17124763  0.33446775  0.56774921  1
