# generated using pymatgen
data_Li3PS4
_symmetry_space_group_name_H-M   Cm
_cell_length_a   7.82603787
_cell_length_b   8.48016123
_cell_length_c   8.18094095
_cell_angle_alpha   90.00000000
_cell_angle_beta   91.75522414
_cell_angle_gamma   90.00000000
_symmetry_Int_Tables_number   8
_chemical_formula_structural   Li3PS4
_chemical_formula_sum   'Li12 P4 S16'
_cell_volume   542.68209724
_cell_formula_units_Z   4
loop_
 _symmetry_equiv_pos_site_id
 _symmetry_equiv_pos_as_xyz
  1  'x, y, z'
  2  'x, -y, z'
  3  'x+1/2, y+1/2, z'
  4  'x+1/2, -y+1/2, z'
loop_
 _atom_site_type_symbol
 _atom_site_label
 _atom_site_symmetry_multiplicity
 _atom_site_fract_x
 _atom_site_fract_y
 _atom_site_fract_z
 _atom_site_occupancy
  Li  Li0  4  0.11881477  0.22702452  0.29024102  1
  Li  Li1  4  0.43928594  0.25764679  0.80717176  1
  Li  Li2  2  0.20212609  0.50000000  0.54134277  1
  Li  Li3  2  0.31296455  0.00000000  0.01332137  1
  P  P4  2  0.18621259  0.00000000  0.57994318  1
  P  P5  2  0.20715490  0.50000000  0.05784224  1
  S  S6  4  0.32450161  0.20009079  0.53864505  1
  S  S7  4  0.34679546  0.29692524  0.08325694  1
  S  S8  2  0.03759422  0.50000000  0.24452493  1
  S  S9  2  0.07147451  0.50000000  0.83868716  1
  S  S10  2  0.08764345  0.00000000  0.80828905  1
  S  S11  2  0.49429345  0.50000000  0.40766009  1
