# generated using pymatgen
data_Li3PS4
_symmetry_space_group_name_H-M   C2
_cell_length_a   10.75786812
_cell_length_b   5.56414920
_cell_length_c   10.75454847
_cell_angle_alpha   90.00000000
_cell_angle_beta   117.64514778
_cell_angle_gamma   90.00000000
_symmetry_Int_Tables_number   5
_chemical_formula_structural   Li3PS4
_chemical_formula_sum   'Li12 P4 S16'
_cell_volume   570.25826299
_cell_formula_units_Z   4
loop_
 _symmetry_equiv_pos_site_id
 _symmetry_equiv_pos_as_xyz
  1  'x, y, z'
  2  '-x, y, -z'
  3  'x+1/2, y+1/2, z'
  4  '-x+1/2, y+1/2, -z'
loop_
 _atom_site_type_symbol
 _atom_site_label
 _atom_site_symmetry_multiplicity
 _atom_site_fract_x
 _atom_site_fract_y
 _atom_site_fract_z
 _atom_site_occupancy
  Li  Li0  4  0.12531537  0.70450884  0.87114710  1
  Li  Li1  4  0.12865515  0.21662459  0.37920722  1
  Li  Li2  4  0.24342422  0.20690012  0.76062186  1
  P  P3  2  0.00000000  0.21467737  0.00000000  1
  P  P4  2  0.00000000  0.70643797  0.50000000  1
  S  S5  4  0.03711288  0.92103422  0.66665464  1
  S  S6  4  0.05620603  0.42845869  0.17079857  1
  S  S7  4  0.16320872  0.00151221  0.03583221  1
  S  S8  4  0.17071364  0.49226472  0.55461455  1
