# generated using pymatgen
data_Li3PS4
_symmetry_space_group_name_H-M   P2_1
_cell_length_a   5.44145059
_cell_length_b   8.63949491
_cell_length_c   6.25755429
_cell_angle_alpha   90.00000000
_cell_angle_beta   110.97616308
_cell_angle_gamma   90.00000000
_symmetry_Int_Tables_number   4
_chemical_formula_structural   Li3PS4
_chemical_formula_sum   'Li6 P2 S8'
_cell_volume   274.68106374
_cell_formula_units_Z   2
loop_
 _symmetry_equiv_pos_site_id
 _symmetry_equiv_pos_as_xyz
  1  'x, y, z'
  2  '-x, y+1/2, -z'
loop_
 _atom_site_type_symbol
 _atom_site_label
 _atom_site_symmetry_multiplicity
 _atom_site_fract_x
 _atom_site_fract_y
 _atom_site_fract_z
 _atom_site_occupancy
  Li  Li0  2  0.02892731  0.86547579  0.63361860  1
  Li  Li1  2  0.14264727  0.34489579  0.87576502  1
  Li  Li2  2  0.43306763  0.64410931  0.15508208  1
  P  P3  2  0.32861550  0.08144795  0.24268734  1
  S  S4  2  0.01691587  0.04611873  0.93608265  1
  S  S5  2  0.16368225  0.10480559  0.48692727  1
  S  S6  2  0.44047000  0.39300686  0.66267278  1
  S  S7  2  0.47993188  0.76740225  0.81532618  1
