# generated using pymatgen
data_Li3PS4
_symmetry_space_group_name_H-M   P2_1/m
_cell_length_a   5.81172227
_cell_length_b   6.98489240
_cell_length_c   6.66255942
_cell_angle_alpha   90.00000000
_cell_angle_beta   94.14447373
_cell_angle_gamma   90.00000000
_symmetry_Int_Tables_number   11
_chemical_formula_structural   Li3PS4
_chemical_formula_sum   'Li6 P2 S8'
_cell_volume   269.75437297
_cell_formula_units_Z   2
loop_
 _symmetry_equiv_pos_site_id
 _symmetry_equiv_pos_as_xyz
  1  'x, y, z'
  2  '-x, -y, -z'
  3  '-x, y+1/2, -z'
  4  'x, -y+1/2, z'
loop_
 _atom_site_type_symbol
 _atom_site_label
 _atom_site_symmetry_multiplicity
 _atom_site_fract_x
 _atom_site_fract_y
 _atom_site_fract_z
 _atom_site_occupancy
  Li  Li0  4  0.14596048  0.00970969  0.28240726  1
  Li  Li1  2  0.36012107  0.75000000  0.98116187  1
  P  P2  2  0.25240347  0.25000000  0.74791446  1
  S  S3  4  0.44495266  0.01185253  0.74222269  1
  S  S4  2  0.00221826  0.25000000  0.51615777  1
  S  S5  2  0.06161787  0.25000000  0.99936881  1
