# generated using pymatgen
data_Li3PS4
_symmetry_space_group_name_H-M   P2_1
_cell_length_a   6.62988065
_cell_length_b   5.92028892
_cell_length_c   7.23943621
_cell_angle_alpha   90.00000000
_cell_angle_beta   98.66860272
_cell_angle_gamma   90.00000000
_symmetry_Int_Tables_number   4
_chemical_formula_structural   Li3PS4
_chemical_formula_sum   'Li6 P2 S8'
_cell_volume   280.90773357
_cell_formula_units_Z   2
loop_
 _symmetry_equiv_pos_site_id
 _symmetry_equiv_pos_as_xyz
  1  'x, y, z'
  2  '-x, y+1/2, -z'
loop_
 _atom_site_type_symbol
 _atom_site_label
 _atom_site_symmetry_multiplicity
 _atom_site_fract_x
 _atom_site_fract_y
 _atom_site_fract_z
 _atom_site_occupancy
  Li  Li0  2  0.12672452  0.26384140  0.36597932  1
  Li  Li1  2  0.31342112  0.75251716  0.22716106  1
  Li  Li2  2  0.35484257  0.94955818  0.90797677  1
  P  P3  2  0.30735562  0.53303523  0.71896867  1
  S  S4  2  0.12959448  0.62337984  0.91541691  1
  S  S5  2  0.15603815  0.66385245  0.47902034  1
  S  S6  2  0.33754320  0.19950946  0.66799432  1
  S  S7  2  0.40829304  0.16346796  0.18631407  1
