# generated using pymatgen
data_Li3PS4
_symmetry_space_group_name_H-M   P2_1
_cell_length_a   6.12748589
_cell_length_b   6.40181272
_cell_length_c   6.88067143
_cell_angle_alpha   90.00000000
_cell_angle_beta   90.92075876
_cell_angle_gamma   90.00000000
_symmetry_Int_Tables_number   4
_chemical_formula_structural   Li3PS4
_chemical_formula_sum   'Li6 P2 S8'
_cell_volume   269.87336433
_cell_formula_units_Z   2
loop_
 _symmetry_equiv_pos_site_id
 _symmetry_equiv_pos_as_xyz
  1  'x, y, z'
  2  '-x, y+1/2, -z'
loop_
 _atom_site_type_symbol
 _atom_site_label
 _atom_site_symmetry_multiplicity
 _atom_site_fract_x
 _atom_site_fract_y
 _atom_site_fract_z
 _atom_site_occupancy
  Li  Li0  2  0.15478474  0.66349415  0.68769098  1
  Li  Li1  2  0.22962469  0.61249121  0.09870735  1
  Li  Li2  2  0.24374029  0.14784795  0.63477010  1
  P  P3  2  0.29913703  0.03469535  0.19908980  1
  S  S4  2  0.11908824  0.86752362  0.39675985  1
  S  S5  2  0.13202228  0.97517501  0.94398632  1
  S  S6  2  0.29800926  0.32326227  0.31766679  1
  S  S7  2  0.39788363  0.41893827  0.83517845  1
