# generated using pymatgen
data_Li3PS4
_symmetry_space_group_name_H-M   P2_1
_cell_length_a   6.61881640
_cell_length_b   6.03795792
_cell_length_c   6.81576992
_cell_angle_alpha   90.00000000
_cell_angle_beta   92.69201885
_cell_angle_gamma   90.00000000
_symmetry_Int_Tables_number   4
_chemical_formula_structural   Li3PS4
_chemical_formula_sum   'Li6 P2 S8'
_cell_volume   272.08575014
_cell_formula_units_Z   2
loop_
 _symmetry_equiv_pos_site_id
 _symmetry_equiv_pos_as_xyz
  1  'x, y, z'
  2  '-x, y+1/2, -z'
loop_
 _atom_site_type_symbol
 _atom_site_label
 _atom_site_symmetry_multiplicity
 _atom_site_fract_x
 _atom_site_fract_y
 _atom_site_fract_z
 _atom_site_occupancy
  Li  Li0  2  0.12773296  0.16549336  0.38582517  1
  Li  Li1  2  0.20477166  0.93666968  0.96385828  1
  Li  Li2  2  0.38171281  0.51092295  0.17048357  1
  P  P3  2  0.29823999  0.46847080  0.71044313  1
  S  S4  2  0.10561361  0.57137114  0.92184512  1
  S  S5  2  0.18055095  0.58250314  0.45162347  1
  S  S6  2  0.30958209  0.13539172  0.69052297  1
  S  S7  2  0.43343995  0.10578845  0.19144695  1
