# generated using pymatgen
data_Li3PS4
_symmetry_space_group_name_H-M   P2_1
_cell_length_a   6.16204978
_cell_length_b   6.31820103
_cell_length_c   6.90443999
_cell_angle_alpha   90.00000000
_cell_angle_beta   91.63191430
_cell_angle_gamma   90.00000000
_symmetry_Int_Tables_number   4
_chemical_formula_structural   Li3PS4
_chemical_formula_sum   'Li6 P2 S8'
_cell_volume   268.70201259
_cell_formula_units_Z   2
loop_
 _symmetry_equiv_pos_site_id
 _symmetry_equiv_pos_as_xyz
  1  'x, y, z'
  2  '-x, y+1/2, -z'
loop_
 _atom_site_type_symbol
 _atom_site_label
 _atom_site_symmetry_multiplicity
 _atom_site_fract_x
 _atom_site_fract_y
 _atom_site_fract_z
 _atom_site_occupancy
  Li  Li0  2  0.20055006  0.32622398  0.86293462  1
  Li  Li1  2  0.28963317  0.83642177  0.40274257  1
  Li  Li2  2  0.38955156  0.78256210  0.80750950  1
  P  P3  2  0.18459239  0.41247204  0.29951407  1
  S  S4  2  0.12140032  0.01590768  0.67260181  1
  S  S5  2  0.20648812  0.12117967  0.18009628  1
  S  S6  2  0.35166094  0.47088694  0.55576758  1
  S  S7  2  0.35805912  0.59300744  0.10971575  1
