# generated using pymatgen
data_Li3PS4
_symmetry_space_group_name_H-M   P2_1
_cell_length_a   6.14145291
_cell_length_b   6.31753495
_cell_length_c   6.94278100
_cell_angle_alpha   90.00000000
_cell_angle_beta   91.39866877
_cell_angle_gamma   90.00000000
_symmetry_Int_Tables_number   4
_chemical_formula_structural   Li3PS4
_chemical_formula_sum   'Li6 P2 S8'
_cell_volume   269.29161551
_cell_formula_units_Z   2
loop_
 _symmetry_equiv_pos_site_id
 _symmetry_equiv_pos_as_xyz
  1  'x, y, z'
  2  '-x, y+1/2, -z'
loop_
 _atom_site_type_symbol
 _atom_site_label
 _atom_site_symmetry_multiplicity
 _atom_site_fract_x
 _atom_site_fract_y
 _atom_site_fract_z
 _atom_site_occupancy
  Li  Li0  2  0.13185398  0.83768602  0.19582153  1
  Li  Li1  2  0.22744194  0.89146378  0.59726405  1
  Li  Li2  2  0.25136611  0.36037103  0.13538657  1
  P  P3  2  0.30398337  0.46919471  0.70156287  1
  S  S4  2  0.12896812  0.64476058  0.89508425  1
  S  S5  2  0.13487715  0.52687377  0.44802434  1
  S  S6  2  0.29154028  0.17731980  0.81929940  1
  S  S7  2  0.39198452  0.07954784  0.33295191  1
