# generated using pymatgen
data_Li3PS4
_symmetry_space_group_name_H-M   P2_1
_cell_length_a   6.08131919
_cell_length_b   7.49224050
_cell_length_c   6.64007775
_cell_angle_alpha   90.00000000
_cell_angle_beta   93.46260252
_cell_angle_gamma   90.00000000
_symmetry_Int_Tables_number   4
_chemical_formula_structural   Li3PS4
_chemical_formula_sum   'Li6 P2 S8'
_cell_volume   301.98760308
_cell_formula_units_Z   2
loop_
 _symmetry_equiv_pos_site_id
 _symmetry_equiv_pos_as_xyz
  1  'x, y, z'
  2  '-x, y+1/2, -z'
loop_
 _atom_site_type_symbol
 _atom_site_label
 _atom_site_symmetry_multiplicity
 _atom_site_fract_x
 _atom_site_fract_y
 _atom_site_fract_z
 _atom_site_occupancy
  Li  Li0  2  0.10051162  0.42927126  0.96923537  1
  Li  Li1  2  0.22147791  0.28933771  0.60947482  1
  Li  Li2  2  0.32073914  0.88573337  0.69636692  1
  P  P3  2  0.32491059  0.13337848  0.20259051  1
  S  S4  2  0.14282310  0.98156830  0.38613877  1
  S  S5  2  0.18169915  0.10786044  0.91493216  1
  S  S6  2  0.29129627  0.39276365  0.28678824  1
  S  S7  2  0.34928745  0.57868634  0.76034835  1
