# generated using pymatgen
data_Li3PS4
_symmetry_space_group_name_H-M   P2_1
_cell_length_a   6.21776789
_cell_length_b   6.11661522
_cell_length_c   7.32683433
_cell_angle_alpha   90.00000000
_cell_angle_beta   90.33524300
_cell_angle_gamma   90.00000000
_symmetry_Int_Tables_number   4
_chemical_formula_structural   Li3PS4
_chemical_formula_sum   'Li6 P2 S8'
_cell_volume   278.64714904
_cell_formula_units_Z   2
loop_
 _symmetry_equiv_pos_site_id
 _symmetry_equiv_pos_as_xyz
  1  'x, y, z'
  2  '-x, y+1/2, -z'
loop_
 _atom_site_type_symbol
 _atom_site_label
 _atom_site_symmetry_multiplicity
 _atom_site_fract_x
 _atom_site_fract_y
 _atom_site_fract_z
 _atom_site_occupancy
  Li  Li0  2  0.06196161  0.44285660  0.27219431  1
  Li  Li1  2  0.23041899  0.02739779  0.02774443  1
  Li  Li2  2  0.40831213  0.83083436  0.46165651  1
  P  P3  2  0.27637136  0.53179554  0.76212724  1
  S  S4  2  0.09251879  0.65075130  0.55365285  1
  S  S5  2  0.13843833  0.65131216  0.99303202  1
  S  S6  2  0.30664256  0.20175801  0.75032798  1
  S  S7  2  0.42107044  0.15526985  0.27950804  1
