# generated using pymatgen
data_Li3PS4
_symmetry_space_group_name_H-M   P2_1
_cell_length_a   5.90267982
_cell_length_b   7.28005571
_cell_length_c   6.24448646
_cell_angle_alpha   90.00000000
_cell_angle_beta   94.60774234
_cell_angle_gamma   90.00000000
_symmetry_Int_Tables_number   4
_chemical_formula_structural   Li3PS4
_chemical_formula_sum   'Li6 P2 S8'
_cell_volume   267.46980323
_cell_formula_units_Z   2
loop_
 _symmetry_equiv_pos_site_id
 _symmetry_equiv_pos_as_xyz
  1  'x, y, z'
  2  '-x, y+1/2, -z'
loop_
 _atom_site_type_symbol
 _atom_site_label
 _atom_site_symmetry_multiplicity
 _atom_site_fract_x
 _atom_site_fract_y
 _atom_site_fract_z
 _atom_site_occupancy
  Li  Li0  2  0.01501125  0.21088484  0.48925607  1
  Li  Li1  2  0.01789457  0.96692782  0.02088184  1
  Li  Li2  2  0.40881354  0.96668248  0.71719226  1
  P  P3  2  0.36458634  0.46884334  0.68666371  1
  S  S4  2  0.21946689  0.47259555  0.37970584  1
  S  S5  2  0.24511324  0.24860011  0.84632413  1
  S  S6  2  0.24805502  0.68644807  0.85268600  1
  S  S7  2  0.29532500  0.96496864  0.33012435  1
