# generated using pymatgen
data_Li3PS4
_symmetry_space_group_name_H-M   P2_1/m
_cell_length_a   6.28370547
_cell_length_b   7.20688656
_cell_length_c   6.42887819
_cell_angle_alpha   90.00000000
_cell_angle_beta   91.57166562
_cell_angle_gamma   90.00000000
_symmetry_Int_Tables_number   11
_chemical_formula_structural   Li3PS4
_chemical_formula_sum   'Li6 P2 S8'
_cell_volume   291.02834664
_cell_formula_units_Z   2
loop_
 _symmetry_equiv_pos_site_id
 _symmetry_equiv_pos_as_xyz
  1  'x, y, z'
  2  '-x, -y, -z'
  3  '-x, y+1/2, -z'
  4  'x, -y+1/2, z'
loop_
 _atom_site_type_symbol
 _atom_site_label
 _atom_site_symmetry_multiplicity
 _atom_site_fract_x
 _atom_site_fract_y
 _atom_site_fract_z
 _atom_site_occupancy
  Li  Li0  4  0.11218919  0.54408155  0.81984292  1
  Li  Li1  2  0.32836576  0.25000000  0.36858324  1
  P  P2  2  0.16672426  0.75000000  0.31656131  1
  S  S3  4  0.26689868  0.52292278  0.15783043  1
  S  S4  2  0.15829861  0.25000000  0.68593973  1
  S  S5  2  0.29466711  0.75000000  0.60918705  1
