# generated using pymatgen
data_Li3PS4
_symmetry_space_group_name_H-M   P2_1
_cell_length_a   5.98617217
_cell_length_b   6.45131161
_cell_length_c   6.93063864
_cell_angle_alpha   90.00000000
_cell_angle_beta   91.35328885
_cell_angle_gamma   90.00000000
_symmetry_Int_Tables_number   4
_chemical_formula_structural   Li3PS4
_chemical_formula_sum   'Li6 P2 S8'
_cell_volume   267.57733698
_cell_formula_units_Z   2
loop_
 _symmetry_equiv_pos_site_id
 _symmetry_equiv_pos_as_xyz
  1  'x, y, z'
  2  '-x, y+1/2, -z'
loop_
 _atom_site_type_symbol
 _atom_site_label
 _atom_site_symmetry_multiplicity
 _atom_site_fract_x
 _atom_site_fract_y
 _atom_site_fract_z
 _atom_site_occupancy
  Li  Li0  2  0.23313356  0.35470682  0.14855894  1
  Li  Li1  2  0.27409772  0.86080777  0.38954207  1
  Li  Li2  2  0.28577311  0.90186705  0.92194038  1
  P  P3  2  0.25161715  0.49142500  0.71228797  1
  S  S4  2  0.04275809  0.59422596  0.92376809  1
  S  S5  2  0.07605451  0.44204662  0.46783791  1
  S  S6  2  0.43117808  0.25224567  0.84166036  1
  S  S7  2  0.48719725  0.70609754  0.65044055  1
