# generated using pymatgen
data_Li3PS4
_symmetry_space_group_name_H-M   P2_1
_cell_length_a   5.98600105
_cell_length_b   6.43496569
_cell_length_c   6.92100060
_cell_angle_alpha   90.00000000
_cell_angle_beta   91.48118857
_cell_angle_gamma   90.00000000
_symmetry_Int_Tables_number   4
_chemical_formula_structural   Li3PS4
_chemical_formula_sum   'Li6 P2 S8'
_cell_volume   266.50586703
_cell_formula_units_Z   2
loop_
 _symmetry_equiv_pos_site_id
 _symmetry_equiv_pos_as_xyz
  1  'x, y, z'
  2  '-x, y+1/2, -z'
loop_
 _atom_site_type_symbol
 _atom_site_label
 _atom_site_symmetry_multiplicity
 _atom_site_fract_x
 _atom_site_fract_y
 _atom_site_fract_z
 _atom_site_occupancy
  Li  Li0  2  0.21677272  0.42855164  0.07631266  1
  Li  Li1  2  0.22818079  0.46203645  0.61055975  1
  Li  Li2  2  0.26507398  0.97366538  0.85490807  1
  P  P3  2  0.24919998  0.83716348  0.29055854  1
  S  S4  2  0.01537435  0.61909736  0.34855276  1
  S  S5  2  0.06960840  0.07703512  0.16091138  1
  S  S6  2  0.42306976  0.88460728  0.53684194  1
  S  S7  2  0.46065001  0.73779677  0.07965713  1
