# generated using pymatgen
data_Li3PS4
_symmetry_space_group_name_H-M   P2_1
_cell_length_a   6.07466355
_cell_length_b   6.60442264
_cell_length_c   6.69894287
_cell_angle_alpha   90.00000000
_cell_angle_beta   91.80457813
_cell_angle_gamma   90.00000000
_symmetry_Int_Tables_number   4
_chemical_formula_structural   Li3PS4
_chemical_formula_sum   'Li6 P2 S8'
_cell_volume   268.62592105
_cell_formula_units_Z   2
loop_
 _symmetry_equiv_pos_site_id
 _symmetry_equiv_pos_as_xyz
  1  'x, y, z'
  2  '-x, y+1/2, -z'
loop_
 _atom_site_type_symbol
 _atom_site_label
 _atom_site_symmetry_multiplicity
 _atom_site_fract_x
 _atom_site_fract_y
 _atom_site_fract_z
 _atom_site_occupancy
  Li  Li0  2  0.23065313  0.22099765  0.65524889  1
  Li  Li1  2  0.26544482  0.72166643  0.87362065  1
  Li  Li2  2  0.28313728  0.65170387  0.40381692  1
  P  P3  2  0.25273447  0.06926546  0.21758440  1
  S  S4  2  0.05268360  0.96260420  0.43698136  1
  S  S5  2  0.06945856  0.12594274  0.97021244  1
  S  S6  2  0.43036376  0.30220651  0.35040399  1
  S  S7  2  0.48250120  0.86225098  0.14330491  1
