# generated using pymatgen
data_Li3PS4
_symmetry_space_group_name_H-M   P2_1/m
_cell_length_a   5.67147514
_cell_length_b   7.58292128
_cell_length_c   6.74014997
_cell_angle_alpha   90.00000000
_cell_angle_beta   90.23187659
_cell_angle_gamma   90.00000000
_symmetry_Int_Tables_number   11
_chemical_formula_structural   Li3PS4
_chemical_formula_sum   'Li6 P2 S8'
_cell_volume   289.86687167
_cell_formula_units_Z   2
loop_
 _symmetry_equiv_pos_site_id
 _symmetry_equiv_pos_as_xyz
  1  'x, y, z'
  2  '-x, -y, -z'
  3  '-x, y+1/2, -z'
  4  'x, -y+1/2, z'
loop_
 _atom_site_type_symbol
 _atom_site_label
 _atom_site_symmetry_multiplicity
 _atom_site_fract_x
 _atom_site_fract_y
 _atom_site_fract_z
 _atom_site_occupancy
  Li  Li0  4  0.23506839  0.01771308  0.82350036  1
  Li  Li1  2  0.23023425  0.75000000  0.35069166  1
  P  P2  2  0.32698582  0.25000000  0.31619836  1
  S  S3  4  0.21355591  0.02972849  0.17257961  1
  S  S4  2  0.20999280  0.25000000  0.59947320  1
  S  S5  2  0.31547779  0.75000000  0.68485833  1
