# generated using pymatgen
data_Li3PS4
_symmetry_space_group_name_H-M   P2_1
_cell_length_a   5.83277245
_cell_length_b   8.46636335
_cell_length_c   5.93644145
_cell_angle_alpha   90.00000000
_cell_angle_beta   104.14828634
_cell_angle_gamma   90.00000000
_symmetry_Int_Tables_number   4
_chemical_formula_structural   Li3PS4
_chemical_formula_sum   'Li6 P2 S8'
_cell_volume   284.26307888
_cell_formula_units_Z   2
loop_
 _symmetry_equiv_pos_site_id
 _symmetry_equiv_pos_as_xyz
  1  'x, y, z'
  2  '-x, y+1/2, -z'
loop_
 _atom_site_type_symbol
 _atom_site_label
 _atom_site_symmetry_multiplicity
 _atom_site_fract_x
 _atom_site_fract_y
 _atom_site_fract_z
 _atom_site_occupancy
  Li  Li0  2  0.16236336  0.85147219  0.67712161  1
  Li  Li1  2  0.19781063  0.38450708  0.93120478  1
  Li  Li2  2  0.44462976  0.67571813  0.35524639  1
  P  P3  2  0.34073524  0.09562213  0.17619318  1
  S  S4  2  0.19400130  0.89576132  0.26958740  1
  S  S5  2  0.24061734  0.11491134  0.82361325  1
  S  S6  2  0.24911288  0.29662026  0.32335702  1
  S  S7  2  0.30268913  0.58417396  0.70327533  1
