# generated using pymatgen
data_Li3PS4
_symmetry_space_group_name_H-M   P2_1
_cell_length_a   6.33890908
_cell_length_b   6.37084328
_cell_length_c   6.81341672
_cell_angle_alpha   90.00000000
_cell_angle_beta   93.97691785
_cell_angle_gamma   90.00000000
_symmetry_Int_Tables_number   4
_chemical_formula_structural   Li3PS4
_chemical_formula_sum   'Li6 P2 S8'
_cell_volume   274.49180647
_cell_formula_units_Z   2
loop_
 _symmetry_equiv_pos_site_id
 _symmetry_equiv_pos_as_xyz
  1  'x, y, z'
  2  '-x, y+1/2, -z'
loop_
 _atom_site_type_symbol
 _atom_site_label
 _atom_site_symmetry_multiplicity
 _atom_site_fract_x
 _atom_site_fract_y
 _atom_site_fract_z
 _atom_site_occupancy
  Li  Li0  2  0.18437027  0.20669635  0.65185230  1
  Li  Li1  2  0.27070877  0.62900286  0.89723177  1
  Li  Li2  2  0.39428833  0.36120079  0.29162367  1
  P  P3  2  0.27669567  0.93911950  0.20818182  1
  S  S4  2  0.06867907  0.15177540  0.30207137  1
  S  S5  2  0.15232384  0.64950425  0.22203269  1
  S  S6  2  0.35841873  0.00473071  0.92845652  1
  S  S7  2  0.44931941  0.49470267  0.62032179  1
