# generated using pymatgen
data_Li3PS4
_symmetry_space_group_name_H-M   P2_1
_cell_length_a   6.09403428
_cell_length_b   6.69598276
_cell_length_c   6.69030416
_cell_angle_alpha   90.00000000
_cell_angle_beta   90.01048280
_cell_angle_gamma   90.00000000
_symmetry_Int_Tables_number   4
_chemical_formula_structural   Li3PS4
_chemical_formula_sum   'Li6 P2 S8'
_cell_volume   273.00152660
_cell_formula_units_Z   2
loop_
 _symmetry_equiv_pos_site_id
 _symmetry_equiv_pos_as_xyz
  1  'x, y, z'
  2  '-x, y+1/2, -z'
loop_
 _atom_site_type_symbol
 _atom_site_label
 _atom_site_symmetry_multiplicity
 _atom_site_fract_x
 _atom_site_fract_y
 _atom_site_fract_z
 _atom_site_occupancy
  Li  Li0  2  0.20991853  0.87095924  0.99218199  1
  Li  Li1  2  0.23220437  0.10159461  0.46664183  1
  Li  Li2  2  0.26719254  0.57570516  0.38341126  1
  P  P3  2  0.26945837  0.39871038  0.80798764  1
  S  S4  2  0.05865916  0.16126321  0.80237899  1
  S  S5  2  0.10785589  0.64956829  0.71580308  1
  S  S6  2  0.40613330  0.41477158  0.07951332  1
  S  S7  2  0.49769717  0.34855717  0.58667299  1
