# generated using pymatgen
data_Li3PS4
_symmetry_space_group_name_H-M   P2_1
_cell_length_a   5.67125130
_cell_length_b   7.41345645
_cell_length_c   6.86968227
_cell_angle_alpha   90.00000000
_cell_angle_beta   91.35082069
_cell_angle_gamma   90.00000000
_symmetry_Int_Tables_number   4
_chemical_formula_structural   Li3PS4
_chemical_formula_sum   'Li6 P2 S8'
_cell_volume   288.74573148
_cell_formula_units_Z   2
loop_
 _symmetry_equiv_pos_site_id
 _symmetry_equiv_pos_as_xyz
  1  'x, y, z'
  2  '-x, y+1/2, -z'
loop_
 _atom_site_type_symbol
 _atom_site_label
 _atom_site_symmetry_multiplicity
 _atom_site_fract_x
 _atom_site_fract_y
 _atom_site_fract_z
 _atom_site_occupancy
  Li  Li0  2  0.21573047  0.28067769  0.18091876  1
  Li  Li1  2  0.23882539  0.01299137  0.64062760  1
  Li  Li2  2  0.24036630  0.73486398  0.17706842  1
  P  P3  2  0.32709585  0.51102654  0.69131322  1
  S  S4  2  0.19411035  0.51057029  0.41476287  1
  S  S5  2  0.21938933  0.28663202  0.83458012  1
  S  S6  2  0.22295402  0.73747060  0.83369299  1
  S  S7  2  0.31625001  0.00906470  0.31366765  1
