# generated using pymatgen
data_Li3PS4
_symmetry_space_group_name_H-M   P2_1
_cell_length_a   5.76649169
_cell_length_b   8.09576629
_cell_length_c   5.91325502
_cell_angle_alpha   90.00000000
_cell_angle_beta   97.06797798
_cell_angle_gamma   90.00000000
_symmetry_Int_Tables_number   4
_chemical_formula_structural   Li3PS4
_chemical_formula_sum   'Li6 P2 S8'
_cell_volume   273.95761370
_cell_formula_units_Z   2
loop_
 _symmetry_equiv_pos_site_id
 _symmetry_equiv_pos_as_xyz
  1  'x, y, z'
  2  '-x, y+1/2, -z'
loop_
 _atom_site_type_symbol
 _atom_site_label
 _atom_site_symmetry_multiplicity
 _atom_site_fract_x
 _atom_site_fract_y
 _atom_site_fract_z
 _atom_site_occupancy
  Li  Li0  2  0.06637913  0.18504405  0.53670105  1
  Li  Li1  2  0.08293526  0.40855615  0.04957311  1
  Li  Li2  2  0.42216999  0.68546167  0.87425341  1
  P  P3  2  0.35597061  0.91387411  0.34599859  1
  S  S4  2  0.18688987  0.10804335  0.17057997  1
  S  S5  2  0.19708883  0.71443287  0.18070354  1
  S  S6  2  0.28480543  0.92783796  0.67248260  1
  S  S7  2  0.29888446  0.42953039  0.68572361  1
