# generated using pymatgen
data_Li3PS4
_symmetry_space_group_name_H-M   P2_1
_cell_length_a   6.14149505
_cell_length_b   5.95182618
_cell_length_c   7.56458651
_cell_angle_alpha   90.00000000
_cell_angle_beta   91.27968461
_cell_angle_gamma   90.00000000
_symmetry_Int_Tables_number   4
_chemical_formula_structural   Li3PS4
_chemical_formula_sum   'Li6 P2 S8'
_cell_volume   276.44020691
_cell_formula_units_Z   2
loop_
 _symmetry_equiv_pos_site_id
 _symmetry_equiv_pos_as_xyz
  1  'x, y, z'
  2  '-x, y+1/2, -z'
loop_
 _atom_site_type_symbol
 _atom_site_label
 _atom_site_symmetry_multiplicity
 _atom_site_fract_x
 _atom_site_fract_y
 _atom_site_fract_z
 _atom_site_occupancy
  Li  Li0  2  0.18098538  0.88905139  0.99135972  1
  Li  Li1  2  0.24821734  0.96236772  0.46072259  1
  Li  Li2  2  0.44124066  0.37843544  0.24974544  1
  P  P3  2  0.23041177  0.46806307  0.74831197  1
  S  S4  2  0.06096793  0.12567366  0.21902194  1
  S  S5  2  0.17977588  0.13155976  0.73509733  1
  S  S6  2  0.37691708  0.59361818  0.52909149  1
  S  S7  2  0.42059549  0.57649490  0.95446502  1
