# generated using pymatgen
data_Li3PS4
_symmetry_space_group_name_H-M   P2_1
_cell_length_a   6.12157068
_cell_length_b   5.95334541
_cell_length_c   7.59141164
_cell_angle_alpha   90.00000000
_cell_angle_beta   91.04982222
_cell_angle_gamma   90.00000000
_symmetry_Int_Tables_number   4
_chemical_formula_structural   Li3PS4
_chemical_formula_sum   'Li6 P2 S8'
_cell_volume   276.61363528
_cell_formula_units_Z   2
loop_
 _symmetry_equiv_pos_site_id
 _symmetry_equiv_pos_as_xyz
  1  'x, y, z'
  2  '-x, y+1/2, -z'
loop_
 _atom_site_type_symbol
 _atom_site_label
 _atom_site_symmetry_multiplicity
 _atom_site_fract_x
 _atom_site_fract_y
 _atom_site_fract_z
 _atom_site_occupancy
  Li  Li0  2  0.06126083  0.09838706  0.74914469  1
  Li  Li1  2  0.25884853  0.51927964  0.53592384  1
  Li  Li2  2  0.31245137  0.57718809  0.00485432  1
  P  P3  2  0.26889872  0.00614266  0.25013174  1
  S  S4  2  0.08251431  0.89757437  0.04285038  1
  S  S5  2  0.11644099  0.88265972  0.46720466  1
  S  S6  2  0.32145652  0.34253177  0.26255497  1
  S  S7  2  0.43890620  0.34670243  0.77654945  1
