# generated using pymatgen
data_Li3PS4
_symmetry_space_group_name_H-M   P2_1
_cell_length_a   6.18902806
_cell_length_b   6.04913802
_cell_length_c   7.37069834
_cell_angle_alpha   90.00000000
_cell_angle_beta   90.92352967
_cell_angle_gamma   90.00000000
_symmetry_Int_Tables_number   4
_chemical_formula_structural   Li3PS4
_chemical_formula_sum   'Li6 P2 S8'
_cell_volume   275.91045886
_cell_formula_units_Z   2
loop_
 _symmetry_equiv_pos_site_id
 _symmetry_equiv_pos_as_xyz
  1  'x, y, z'
  2  '-x, y+1/2, -z'
loop_
 _atom_site_type_symbol
 _atom_site_label
 _atom_site_symmetry_multiplicity
 _atom_site_fract_x
 _atom_site_fract_y
 _atom_site_fract_z
 _atom_site_occupancy
  Li  Li0  2  0.07717635  0.94875681  0.74913334  1
  Li  Li1  2  0.26378412  0.53866762  0.52857119  1
  Li  Li2  2  0.28947927  0.51012767  0.99250841  1
  P  P3  2  0.27243425  0.06495910  0.25009590  1
  S  S4  2  0.09156049  0.17174319  0.03324008  1
  S  S5  2  0.10973482  0.18113141  0.47072401  1
  S  S6  2  0.33563442  0.73673506  0.25790006  1
  S  S7  2  0.44403170  0.73394144  0.76489376  1
