# generated using pymatgen
data_Li3PS4
_symmetry_space_group_name_H-M   P2_1
_cell_length_a   6.72964667
_cell_length_b   5.84207758
_cell_length_c   7.38239010
_cell_angle_alpha   90.00000000
_cell_angle_beta   92.25068106
_cell_angle_gamma   90.00000000
_symmetry_Int_Tables_number   4
_chemical_formula_structural   Li3PS4
_chemical_formula_sum   'Li6 P2 S8'
_cell_volume   290.01563797
_cell_formula_units_Z   2
loop_
 _symmetry_equiv_pos_site_id
 _symmetry_equiv_pos_as_xyz
  1  'x, y, z'
  2  '-x, y+1/2, -z'
loop_
 _atom_site_type_symbol
 _atom_site_label
 _atom_site_symmetry_multiplicity
 _atom_site_fract_x
 _atom_site_fract_y
 _atom_site_fract_z
 _atom_site_occupancy
  Li  Li0  2  0.00038487  0.89132344  0.18243138  1
  Li  Li1  2  0.30161454  0.40039368  0.50823826  1
  Li  Li2  2  0.48434559  0.38812101  0.96219396  1
  P  P3  2  0.25877801  0.99150959  0.75968379  1
  S  S4  2  0.05436353  0.11329094  0.57863176  1
  S  S5  2  0.20531645  0.12710177  0.01071084  1
  S  S6  2  0.27937301  0.64696593  0.77579626  1
  S  S7  2  0.46825708  0.62554056  0.29317011  1
