# generated using pymatgen
data_Li3PS4
_symmetry_space_group_name_H-M   P2_1
_cell_length_a   5.72971653
_cell_length_b   8.32623539
_cell_length_c   5.75603177
_cell_angle_alpha   90.00000000
_cell_angle_beta   104.15927003
_cell_angle_gamma   90.00000000
_symmetry_Int_Tables_number   4
_chemical_formula_structural   Li3PS4
_chemical_formula_sum   'Li6 P2 S8'
_cell_volume   266.26025223
_cell_formula_units_Z   2
loop_
 _symmetry_equiv_pos_site_id
 _symmetry_equiv_pos_as_xyz
  1  'x, y, z'
  2  '-x, y+1/2, -z'
loop_
 _atom_site_type_symbol
 _atom_site_label
 _atom_site_symmetry_multiplicity
 _atom_site_fract_x
 _atom_site_fract_y
 _atom_site_fract_z
 _atom_site_occupancy
  Li  Li0  2  0.07090850  0.15539851  0.55611976  1
  Li  Li1  2  0.14721882  0.40920385  0.08028385  1
  Li  Li2  2  0.43551989  0.66398446  0.91254645  1
  P  P3  2  0.37559280  0.91270476  0.36680389  1
  S  S4  2  0.18674352  0.10258351  0.18396055  1
  S  S5  2  0.18994075  0.72210791  0.18635569  1
  S  S6  2  0.27950786  0.42074930  0.66962547  1
  S  S7  2  0.34476882  0.92232840  0.71094175  1
