# generated using pymatgen
data_Li3PS4
_symmetry_space_group_name_H-M   P2_1
_cell_length_a   5.77900288
_cell_length_b   7.86002115
_cell_length_c   6.10901679
_cell_angle_alpha   90.00000000
_cell_angle_beta   93.39638191
_cell_angle_gamma   90.00000000
_symmetry_Int_Tables_number   4
_chemical_formula_structural   Li3PS4
_chemical_formula_sum   'Li6 P2 S8'
_cell_volume   277.00299558
_cell_formula_units_Z   2
loop_
 _symmetry_equiv_pos_site_id
 _symmetry_equiv_pos_as_xyz
  1  'x, y, z'
  2  '-x, y+1/2, -z'
loop_
 _atom_site_type_symbol
 _atom_site_label
 _atom_site_symmetry_multiplicity
 _atom_site_fract_x
 _atom_site_fract_y
 _atom_site_fract_z
 _atom_site_occupancy
  Li  Li0  2  0.04952732  0.58671381  0.01669316  1
  Li  Li1  2  0.06813155  0.38271590  0.51320713  1
  Li  Li2  2  0.40780427  0.08469817  0.35009199  1
  P  P3  2  0.35501759  0.87056695  0.83305480  1
  S  S4  2  0.19991368  0.67247104  0.66003741  1
  S  S5  2  0.21322569  0.08003099  0.68047561  1
  S  S6  2  0.25561001  0.85278352  0.14472129  1
  S  S7  2  0.29748242  0.35074388  0.18282975  1
