# generated using pymatgen
data_Li3PS4
_symmetry_space_group_name_H-M   P2_1
_cell_length_a   6.16515730
_cell_length_b   6.19901765
_cell_length_c   7.05480634
_cell_angle_alpha   90.00000000
_cell_angle_beta   93.40628036
_cell_angle_gamma   90.00000000
_symmetry_Int_Tables_number   4
_chemical_formula_structural   Li3PS4
_chemical_formula_sum   'Li6 P2 S8'
_cell_volume   269.14368500
_cell_formula_units_Z   2
loop_
 _symmetry_equiv_pos_site_id
 _symmetry_equiv_pos_as_xyz
  1  'x, y, z'
  2  '-x, y+1/2, -z'
loop_
 _atom_site_type_symbol
 _atom_site_label
 _atom_site_symmetry_multiplicity
 _atom_site_fract_x
 _atom_site_fract_y
 _atom_site_fract_z
 _atom_site_occupancy
  Li  Li0  2  0.21449487  0.33569125  0.15530283  1
  Li  Li1  2  0.27650268  0.87282538  0.07546180  1
  Li  Li2  2  0.27930206  0.87382674  0.54757374  1
  P  P3  2  0.26600320  0.43523619  0.70933359  1
  S  S4  2  0.08420254  0.57515153  0.91222060  1
  S  S5  2  0.09812394  0.47241558  0.45721000  1
  S  S6  2  0.36299420  0.14081609  0.81329768  1
  S  S7  2  0.45415230  0.10218246  0.32671760  1
