# generated using pymatgen
data_Li3PS4
_symmetry_space_group_name_H-M   P2_1
_cell_length_a   5.94695889
_cell_length_b   7.27110184
_cell_length_c   6.63562108
_cell_angle_alpha   90.00000000
_cell_angle_beta   90.71039104
_cell_angle_gamma   90.00000000
_symmetry_Int_Tables_number   4
_chemical_formula_structural   Li3PS4
_chemical_formula_sum   'Li6 P2 S8'
_cell_volume   286.90846366
_cell_formula_units_Z   2
loop_
 _symmetry_equiv_pos_site_id
 _symmetry_equiv_pos_as_xyz
  1  'x, y, z'
  2  '-x, y+1/2, -z'
loop_
 _atom_site_type_symbol
 _atom_site_label
 _atom_site_symmetry_multiplicity
 _atom_site_fract_x
 _atom_site_fract_y
 _atom_site_fract_z
 _atom_site_occupancy
  Li  Li0  2  0.05519815  0.13483697  0.52372381  1
  Li  Li1  2  0.19681536  0.60782081  0.84229620  1
  Li  Li2  2  0.37684241  0.36322882  0.31878949  1
  P  P3  2  0.34124534  0.85162144  0.32040402  1
  S  S4  2  0.19374739  0.62889811  0.19139153  1
  S  S5  2  0.22584167  0.07969169  0.17587258  1
  S  S6  2  0.23132520  0.85848108  0.61357738  1
  S  S7  2  0.31900448  0.34425747  0.68365822  1
