# generated using pymatgen
data_Li3PS4
_symmetry_space_group_name_H-M   P2_1
_cell_length_a   5.78051185
_cell_length_b   7.77660769
_cell_length_c   6.11309237
_cell_angle_alpha   90.00000000
_cell_angle_beta   93.98969635
_cell_angle_gamma   90.00000000
_symmetry_Int_Tables_number   4
_chemical_formula_structural   Li3PS4
_chemical_formula_sum   'Li6 P2 S8'
_cell_volume   274.13449546
_cell_formula_units_Z   2
loop_
 _symmetry_equiv_pos_site_id
 _symmetry_equiv_pos_as_xyz
  1  'x, y, z'
  2  '-x, y+1/2, -z'
loop_
 _atom_site_type_symbol
 _atom_site_label
 _atom_site_symmetry_multiplicity
 _atom_site_fract_x
 _atom_site_fract_y
 _atom_site_fract_z
 _atom_site_occupancy
  Li  Li0  2  0.04290655  0.22357716  0.51263199  1
  Li  Li1  2  0.06729601  0.02049304  0.01269700  1
  Li  Li2  2  0.41052510  0.72020767  0.85754456  1
  P  P3  2  0.35738837  0.50701139  0.33597116  1
  S  S4  2  0.19906805  0.30794551  0.16060052  1
  S  S5  2  0.21509630  0.71914811  0.18473126  1
  S  S6  2  0.26078602  0.48645312  0.64698424  1
  S  S7  2  0.29558132  0.98668337  0.68297245  1
