# generated using pymatgen
data_Li3PS4
_symmetry_space_group_name_H-M   P2_1
_cell_length_a   5.80461587
_cell_length_b   7.73154531
_cell_length_c   6.17865677
_cell_angle_alpha   90.00000000
_cell_angle_beta   92.95329163
_cell_angle_gamma   90.00000000
_symmetry_Int_Tables_number   4
_chemical_formula_structural   Li3PS4
_chemical_formula_sum   'Li6 P2 S8'
_cell_volume   276.92150095
_cell_formula_units_Z   2
loop_
 _symmetry_equiv_pos_site_id
 _symmetry_equiv_pos_as_xyz
  1  'x, y, z'
  2  '-x, y+1/2, -z'
loop_
 _atom_site_type_symbol
 _atom_site_label
 _atom_site_symmetry_multiplicity
 _atom_site_fract_x
 _atom_site_fract_y
 _atom_site_fract_z
 _atom_site_occupancy
  Li  Li0  2  0.04479227  0.22412884  0.51370165  1
  Li  Li1  2  0.06599427  0.42892619  0.00412435  1
  Li  Li2  2  0.40646175  0.72853669  0.84930126  1
  P  P3  2  0.35497376  0.93894795  0.33102443  1
  S  S4  2  0.20310774  0.14164775  0.16128786  1
  S  S5  2  0.21507911  0.72710978  0.17889093  1
  S  S6  2  0.25006717  0.95683039  0.63797909  1
  S  S7  2  0.29847833  0.45882318  0.68117535  1
