# generated using pymatgen
data_Li3PS4
_symmetry_space_group_name_H-M   P2_1
_cell_length_a   5.77906011
_cell_length_b   7.97368065
_cell_length_c   5.99400233
_cell_angle_alpha   90.00000000
_cell_angle_beta   95.46378219
_cell_angle_gamma   90.00000000
_symmetry_Int_Tables_number   4
_chemical_formula_structural   Li3PS4
_chemical_formula_sum   'Li6 P2 S8'
_cell_volume   274.95098593
_cell_formula_units_Z   2
loop_
 _symmetry_equiv_pos_site_id
 _symmetry_equiv_pos_as_xyz
  1  'x, y, z'
  2  '-x, y+1/2, -z'
loop_
 _atom_site_type_symbol
 _atom_site_label
 _atom_site_symmetry_multiplicity
 _atom_site_fract_x
 _atom_site_fract_y
 _atom_site_fract_z
 _atom_site_occupancy
  Li  Li0  2  0.06045570  0.20140057  0.52852652  1
  Li  Li1  2  0.07716598  0.41411567  0.03109303  1
  Li  Li2  2  0.41968357  0.70130231  0.86773626  1
  P  P3  2  0.35418042  0.92286483  0.34151711  1
  S  S4  2  0.18942818  0.11892412  0.16754123  1
  S  S5  2  0.20307857  0.71871376  0.18237697  1
  S  S6  2  0.27302935  0.93900656  0.66205370  1
  S  S7  2  0.30036890  0.44161633  0.68619113  1
