# generated using pymatgen
data_Li3PS4
_symmetry_space_group_name_H-M   P2_1
_cell_length_a   6.22099978
_cell_length_b   5.96582994
_cell_length_c   7.48315690
_cell_angle_alpha   90.00000000
_cell_angle_beta   91.92934104
_cell_angle_gamma   90.00000000
_symmetry_Int_Tables_number   4
_chemical_formula_structural   Li3PS4
_chemical_formula_sum   'Li6 P2 S8'
_cell_volume   277.56815395
_cell_formula_units_Z   2
loop_
 _symmetry_equiv_pos_site_id
 _symmetry_equiv_pos_as_xyz
  1  'x, y, z'
  2  '-x, y+1/2, -z'
loop_
 _atom_site_type_symbol
 _atom_site_label
 _atom_site_symmetry_multiplicity
 _atom_site_fract_x
 _atom_site_fract_y
 _atom_site_fract_z
 _atom_site_occupancy
  Li  Li0  2  0.16602883  0.75499438  0.48470688  1
  Li  Li1  2  0.25985911  0.83996245  0.95537199  1
  Li  Li2  2  0.44876915  0.25265576  0.74787183  1
  P  P3  2  0.22883743  0.34149646  0.24783264  1
  S  S4  2  0.06064094  0.99474556  0.71604460  1
  S  S5  2  0.18370368  0.00580091  0.23147116  1
  S  S6  2  0.37075647  0.46792169  0.02632435  1
  S  S7  2  0.41889086  0.45290368  0.45554755  1
