# generated using pymatgen
data_Li3PS4
_symmetry_space_group_name_H-M   P2_1
_cell_length_a   6.31609729
_cell_length_b   6.58484201
_cell_length_c   6.69435422
_cell_angle_alpha   90.00000000
_cell_angle_beta   93.35015854
_cell_angle_gamma   90.00000000
_symmetry_Int_Tables_number   4
_chemical_formula_structural   Li3PS4
_chemical_formula_sum   'Li6 P2 S8'
_cell_volume   277.94574651
_cell_formula_units_Z   2
loop_
 _symmetry_equiv_pos_site_id
 _symmetry_equiv_pos_as_xyz
  1  'x, y, z'
  2  '-x, y+1/2, -z'
loop_
 _atom_site_type_symbol
 _atom_site_label
 _atom_site_symmetry_multiplicity
 _atom_site_fract_x
 _atom_site_fract_y
 _atom_site_fract_z
 _atom_site_occupancy
  Li  Li0  2  0.11730541  0.35788180  0.21097638  1
  Li  Li1  2  0.22977339  0.62590698  0.60174758  1
  Li  Li2  2  0.30305003  0.19830342  0.84889366  1
  P  P3  2  0.22356468  0.93503778  0.29131787  1
  S  S4  2  0.05010494  0.49020588  0.88128732  1
  S  S5  2  0.14005387  0.98865483  0.57824826  1
  S  S6  2  0.35111901  0.65576683  0.27166723  1
  S  S7  2  0.42912152  0.14781905  0.20226259  1
