# generated using pymatgen
data_Li3PS4
_symmetry_space_group_name_H-M   P2_1
_cell_length_a   6.12118983
_cell_length_b   5.91142881
_cell_length_c   7.66877126
_cell_angle_alpha   90.00000000
_cell_angle_beta   90.77594192
_cell_angle_gamma   90.00000000
_symmetry_Int_Tables_number   4
_chemical_formula_structural   Li3PS4
_chemical_formula_sum   'Li6 P2 S8'
_cell_volume   277.46887204
_cell_formula_units_Z   2
loop_
 _symmetry_equiv_pos_site_id
 _symmetry_equiv_pos_as_xyz
  1  'x, y, z'
  2  '-x, y+1/2, -z'
loop_
 _atom_site_type_symbol
 _atom_site_label
 _atom_site_symmetry_multiplicity
 _atom_site_fract_x
 _atom_site_fract_y
 _atom_site_fract_z
 _atom_site_occupancy
  Li  Li0  2  0.13255225  0.55957612  0.47428470  1
  Li  Li1  2  0.26183199  0.45852269  0.96351510  1
  Li  Li2  2  0.44169108  0.04112458  0.74245309  1
  P  P3  2  0.22430238  0.96084882  0.24804829  1
  S  S4  2  0.07968707  0.32486625  0.71624949  1
  S  S5  2  0.19382029  0.30212361  0.23699157  1
  S  S6  2  0.36368807  0.83595543  0.02814507  1
  S  S7  2  0.40770667  0.84245202  0.45045749  1
