# generated using pymatgen
data_Li3PS4
_symmetry_space_group_name_H-M   P2_1
_cell_length_a   6.10371916
_cell_length_b   5.90636603
_cell_length_c   7.70832302
_cell_angle_alpha   90.00000000
_cell_angle_beta   90.62987361
_cell_angle_gamma   90.00000000
_symmetry_Int_Tables_number   4
_chemical_formula_structural   Li3PS4
_chemical_formula_sum   'Li6 P2 S8'
_cell_volume   277.87441616
_cell_formula_units_Z   2
loop_
 _symmetry_equiv_pos_site_id
 _symmetry_equiv_pos_as_xyz
  1  'x, y, z'
  2  '-x, y+1/2, -z'
loop_
 _atom_site_type_symbol
 _atom_site_label
 _atom_site_symmetry_multiplicity
 _atom_site_fract_x
 _atom_site_fract_y
 _atom_site_fract_z
 _atom_site_occupancy
  Li  Li0  2  0.11638026  0.64526357  0.96715845  1
  Li  Li1  2  0.27630877  0.53082882  0.46671055  1
  Li  Li2  2  0.42910002  0.10478669  0.22928806  1
  P  P3  2  0.21945135  0.03988486  0.74224411  1
  S  S4  2  0.09047545  0.41897729  0.21561943  1
  S  S5  2  0.20494369  0.38294275  0.73974353  1
  S  S6  2  0.34738955  0.91943154  0.51856026  1
  S  S7  2  0.40448839  0.91279644  0.94036733  1
