# generated using pymatgen
data_Li3PS4
_symmetry_space_group_name_H-M   P2_1
_cell_length_a   6.37100029
_cell_length_b   6.59823142
_cell_length_c   6.68566647
_cell_angle_alpha   90.00000000
_cell_angle_beta   91.29705106
_cell_angle_gamma   90.00000000
_symmetry_Int_Tables_number   4
_chemical_formula_structural   Li3PS4
_chemical_formula_sum   'Li6 P2 S8'
_cell_volume   280.97558475
_cell_formula_units_Z   2
loop_
 _symmetry_equiv_pos_site_id
 _symmetry_equiv_pos_as_xyz
  1  'x, y, z'
  2  '-x, y+1/2, -z'
loop_
 _atom_site_type_symbol
 _atom_site_label
 _atom_site_symmetry_multiplicity
 _atom_site_fract_x
 _atom_site_fract_y
 _atom_site_fract_z
 _atom_site_occupancy
  Li  Li0  2  0.18615701  0.67061577  0.15568842  1
  Li  Li1  2  0.20743318  0.28113938  0.60387832  1
  Li  Li2  2  0.35876942  0.09289513  0.21165558  1
  P  P3  2  0.30017935  0.85948687  0.70560127  1
  S  S4  2  0.13926039  0.91544940  0.44193035  1
  S  S5  2  0.17387333  0.05859740  0.90271899  1
  S  S6  2  0.27486881  0.57749701  0.82223093  1
  S  S7  2  0.39211885  0.42594897  0.33407202  1
