# generated using pymatgen
data_Li3PS4
_symmetry_space_group_name_H-M   P2_1
_cell_length_a   6.17462381
_cell_length_b   5.95224394
_cell_length_c   7.69198275
_cell_angle_alpha   90.00000000
_cell_angle_beta   90.56700110
_cell_angle_gamma   90.00000000
_symmetry_Int_Tables_number   4
_chemical_formula_structural   Li3PS4
_chemical_formula_sum   'Li6 P2 S8'
_cell_volume   282.68857736
_cell_formula_units_Z   2
loop_
 _symmetry_equiv_pos_site_id
 _symmetry_equiv_pos_as_xyz
  1  'x, y, z'
  2  '-x, y+1/2, -z'
loop_
 _atom_site_type_symbol
 _atom_site_label
 _atom_site_symmetry_multiplicity
 _atom_site_fract_x
 _atom_site_fract_y
 _atom_site_fract_z
 _atom_site_occupancy
  Li  Li0  2  0.06750743  0.03448337  0.25170926  1
  Li  Li1  2  0.26071621  0.46367038  0.02288779  1
  Li  Li2  2  0.27865376  0.48257353  0.48781024  1
  P  P3  2  0.27096027  0.94311286  0.75132206  1
  S  S4  2  0.09700961  0.82682060  0.54268138  1
  S  S5  2  0.11112514  0.82368981  0.96380388  1
  S  S6  2  0.31058520  0.28150716  0.75361159  1
  S  S7  2  0.43555191  0.28946271  0.25728620  1
