# generated using pymatgen
data_Li3PS4
_symmetry_space_group_name_H-M   P2_1
_cell_length_a   6.10703193
_cell_length_b   5.92906174
_cell_length_c   7.80674875
_cell_angle_alpha   90.00000000
_cell_angle_beta   90.72797119
_cell_angle_gamma   90.00000000
_symmetry_Int_Tables_number   4
_chemical_formula_structural   Li3PS4
_chemical_formula_sum   'Li6 P2 S8'
_cell_volume   282.65151095
_cell_formula_units_Z   2
loop_
 _symmetry_equiv_pos_site_id
 _symmetry_equiv_pos_as_xyz
  1  'x, y, z'
  2  '-x, y+1/2, -z'
loop_
 _atom_site_type_symbol
 _atom_site_label
 _atom_site_symmetry_multiplicity
 _atom_site_fract_x
 _atom_site_fract_y
 _atom_site_fract_z
 _atom_site_occupancy
  Li  Li0  2  0.21636545  0.83239012  0.50676817  1
  Li  Li1  2  0.23939637  0.85994023  0.97558457  1
  Li  Li2  2  0.43364206  0.29094930  0.74969565  1
  P  P3  2  0.22975743  0.37536473  0.24871718  1
  S  S4  2  0.06911217  0.02474606  0.73787527  1
  S  S5  2  0.19329324  0.03482758  0.24409316  1
  S  S6  2  0.38575902  0.49741993  0.03807868  1
  S  S7  2  0.40632792  0.49167652  0.45383495  1
