# generated using pymatgen
data_Li3PS4
_symmetry_space_group_name_H-M   Fmm2
_cell_length_a   7.97383104
_cell_length_b   8.97308037
_cell_length_c   7.32462746
_cell_angle_alpha   90.00000000
_cell_angle_beta   90.00000000
_cell_angle_gamma   90.00000000
_symmetry_Int_Tables_number   42
_chemical_formula_structural   Li3PS4
_chemical_formula_sum   'Li12 P4 S16'
_cell_volume   524.07582555
_cell_formula_units_Z   4
loop_
 _symmetry_equiv_pos_site_id
 _symmetry_equiv_pos_as_xyz
  1  'x, y, z'
  2  '-x, -y, z'
  3  '-x, y, z'
  4  'x, -y, z'
  5  'x, y+1/2, z+1/2'
  6  '-x, -y+1/2, z+1/2'
  7  '-x, y+1/2, z+1/2'
  8  'x, -y+1/2, z+1/2'
  9  'x+1/2, y, z+1/2'
  10  '-x+1/2, -y, z+1/2'
  11  '-x+1/2, y, z+1/2'
  12  'x+1/2, -y, z+1/2'
  13  'x+1/2, y+1/2, z'
  14  '-x+1/2, -y+1/2, z'
  15  '-x+1/2, y+1/2, z'
  16  'x+1/2, -y+1/2, z'
loop_
 _atom_site_type_symbol
 _atom_site_label
 _atom_site_symmetry_multiplicity
 _atom_site_fract_x
 _atom_site_fract_y
 _atom_site_fract_z
 _atom_site_occupancy
  Li  Li0  8  0.25000000  0.25000000  0.27928800  1
  Li  Li1  4  0.00000000  0.00000000  0.65258440  1
  P  P2  4  0.00000000  0.00000000  0.20989224  1
  S  S3  8  0.00000000  0.19643755  0.06667949  1
  S  S4  8  0.20691659  0.00000000  0.37318571  1
