# generated using pymatgen
data_Li3PS4
_symmetry_space_group_name_H-M   P2_1
_cell_length_a   6.30666096
_cell_length_b   6.72904320
_cell_length_c   6.42930150
_cell_angle_alpha   90.00000000
_cell_angle_beta   92.65599940
_cell_angle_gamma   90.00000000
_symmetry_Int_Tables_number   4
_chemical_formula_structural   Li3PS4
_chemical_formula_sum   'Li6 P2 S8'
_cell_volume   272.55227057
_cell_formula_units_Z   2
loop_
 _symmetry_equiv_pos_site_id
 _symmetry_equiv_pos_as_xyz
  1  'x, y, z'
  2  '-x, y+1/2, -z'
loop_
 _atom_site_type_symbol
 _atom_site_label
 _atom_site_symmetry_multiplicity
 _atom_site_fract_x
 _atom_site_fract_y
 _atom_site_fract_z
 _atom_site_occupancy
  Li  Li0  2  0.23797216  0.38737648  0.74774017  1
  Li  Li1  2  0.25822138  0.88597419  0.75707928  1
  Li  Li2  2  0.26026950  0.17193544  0.29585366  1
  P  P3  2  0.25096578  0.68325726  0.25233033  1
  S  S4  2  0.05167775  0.52375332  0.43080176  1
  S  S5  2  0.08143894  0.88187284  0.07659428  1
  S  S6  2  0.42341687  0.50958104  0.06488226  1
  S  S7  2  0.45284229  0.84076924  0.44803807  1
