# generated using pymatgen
data_Li3PS4
_symmetry_space_group_name_H-M   Pmn2_1
_cell_length_a   7.63305402
_cell_length_b   6.18706697
_cell_length_c   5.97258174
_cell_angle_alpha   90.00000000
_cell_angle_beta   90.00000000
_cell_angle_gamma   90.00000000
_symmetry_Int_Tables_number   31
_chemical_formula_structural   Li3PS4
_chemical_formula_sum   'Li6 P2 S8'
_cell_volume   282.06243793
_cell_formula_units_Z   2
loop_
 _symmetry_equiv_pos_site_id
 _symmetry_equiv_pos_as_xyz
  1  'x, y, z'
  2  '-x+1/2, -y, z+1/2'
  3  '-x, y, z'
  4  'x+1/2, -y, z+1/2'
loop_
 _atom_site_type_symbol
 _atom_site_label
 _atom_site_symmetry_multiplicity
 _atom_site_fract_x
 _atom_site_fract_y
 _atom_site_fract_z
 _atom_site_occupancy
  Li  Li0  4  0.23286601  0.77097518  0.06251499  1
  Li  Li1  2  0.00000000  0.56746415  0.50141454  1
  P  P2  2  0.00000000  0.22866194  0.09494739  1
  S  S3  4  0.21190513  0.39486012  0.21278112  1
  S  S4  2  0.00000000  0.18660173  0.75787600  1
  S  S5  2  0.00000000  0.93698647  0.25097612  1
