# generated using pymatgen
data_Li3PS4
_symmetry_space_group_name_H-M   P2_1
_cell_length_a   6.51432510
_cell_length_b   6.32634987
_cell_length_c   6.75143895
_cell_angle_alpha   90.00000000
_cell_angle_beta   93.72246437
_cell_angle_gamma   90.00000000
_symmetry_Int_Tables_number   4
_chemical_formula_structural   Li3PS4
_chemical_formula_sum   'Li6 P2 S8'
_cell_volume   277.65260631
_cell_formula_units_Z   2
loop_
 _symmetry_equiv_pos_site_id
 _symmetry_equiv_pos_as_xyz
  1  'x, y, z'
  2  '-x, y+1/2, -z'
loop_
 _atom_site_type_symbol
 _atom_site_label
 _atom_site_symmetry_multiplicity
 _atom_site_fract_x
 _atom_site_fract_y
 _atom_site_fract_z
 _atom_site_occupancy
  Li  Li0  2  0.09740838  0.88630033  0.20741999  1
  Li  Li1  2  0.24572370  0.17122939  0.61720669  1
  Li  Li2  2  0.34017369  0.75950147  0.83552291  1
  P  P3  2  0.21778139  0.46233512  0.29405153  1
  S  S4  2  0.05108574  0.01887498  0.87397723  1
  S  S5  2  0.15263204  0.54142395  0.57673056  1
  S  S6  2  0.33554027  0.16754456  0.28301104  1
  S  S7  2  0.42563946  0.66486772  0.18515900  1
