# generated using pymatgen
data_Li3PS4
_symmetry_space_group_name_H-M   P2_1
_cell_length_a   6.55589735
_cell_length_b   6.49286116
_cell_length_c   6.61725135
_cell_angle_alpha   90.00000000
_cell_angle_beta   91.24171164
_cell_angle_gamma   90.00000000
_symmetry_Int_Tables_number   4
_chemical_formula_structural   Li3PS4
_chemical_formula_sum   'Li6 P2 S8'
_cell_volume   281.60729161
_cell_formula_units_Z   2
loop_
 _symmetry_equiv_pos_site_id
 _symmetry_equiv_pos_as_xyz
  1  'x, y, z'
  2  '-x, y+1/2, -z'
loop_
 _atom_site_type_symbol
 _atom_site_label
 _atom_site_symmetry_multiplicity
 _atom_site_fract_x
 _atom_site_fract_y
 _atom_site_fract_z
 _atom_site_occupancy
  Li  Li0  2  0.13194525  0.75016406  0.28504429  1
  Li  Li1  2  0.29697861  0.55205866  0.89964999  1
  Li  Li2  2  0.32149388  0.17568129  0.33960256  1
  P  P3  2  0.20164343  0.97611297  0.79244987  1
  S  S4  2  0.09655590  0.40891554  0.16239399  1
  S  S5  2  0.22485374  0.26258648  0.67434628  1
  S  S6  2  0.32328623  0.77312516  0.59375505  1
  S  S7  2  0.36069874  0.92087958  0.05813515  1
