# generated using pymatgen
data_Li3PS4
_symmetry_space_group_name_H-M   P2_1
_cell_length_a   6.34607023
_cell_length_b   6.45748652
_cell_length_c   6.51177374
_cell_angle_alpha   90.00000000
_cell_angle_beta   92.59906835
_cell_angle_gamma   90.00000000
_symmetry_Int_Tables_number   4
_chemical_formula_structural   Li3PS4
_chemical_formula_sum   'Li6 P2 S8'
_cell_volume   266.57578625
_cell_formula_units_Z   2
loop_
 _symmetry_equiv_pos_site_id
 _symmetry_equiv_pos_as_xyz
  1  'x, y, z'
  2  '-x, y+1/2, -z'
loop_
 _atom_site_type_symbol
 _atom_site_label
 _atom_site_symmetry_multiplicity
 _atom_site_fract_x
 _atom_site_fract_y
 _atom_site_fract_z
 _atom_site_occupancy
  Li  Li0  2  0.23451290  0.80500278  0.25673610  1
  Li  Li1  2  0.25402061  0.29870391  0.25316802  1
  Li  Li2  2  0.26494281  0.95716090  0.78880281  1
  P  P3  2  0.25221477  0.45599455  0.75040571  1
  S  S4  2  0.05337976  0.62168529  0.92704679  1
  S  S5  2  0.08436361  0.24931029  0.57479470  1
  S  S6  2  0.42424689  0.64131351  0.56909988  1
  S  S7  2  0.45078505  0.28676330  0.93926993  1
