# generated using pymatgen
data_Li3PS4
_symmetry_space_group_name_H-M   P2_1
_cell_length_a   5.95048771
_cell_length_b   7.52024484
_cell_length_c   6.08446871
_cell_angle_alpha   90.00000000
_cell_angle_beta   98.13623387
_cell_angle_gamma   90.00000000
_symmetry_Int_Tables_number   4
_chemical_formula_structural   Li3PS4
_chemical_formula_sum   'Li6 P2 S8'
_cell_volume   269.53402755
_cell_formula_units_Z   2
loop_
 _symmetry_equiv_pos_site_id
 _symmetry_equiv_pos_as_xyz
  1  'x, y, z'
  2  '-x, y+1/2, -z'
loop_
 _atom_site_type_symbol
 _atom_site_label
 _atom_site_symmetry_multiplicity
 _atom_site_fract_x
 _atom_site_fract_y
 _atom_site_fract_z
 _atom_site_occupancy
  Li  Li0  2  0.17886669  0.49727973  0.22398746  1
  Li  Li1  2  0.25404377  0.31860979  0.73255329  1
  Li  Li2  2  0.27747825  0.76843445  0.76401205  1
  P  P3  2  0.24353355  0.90780094  0.24769493  1
  S  S4  2  0.01764905  0.76826652  0.02692099  1
  S  S5  2  0.05377102  0.04928628  0.44254284  1
  S  S6  2  0.43493282  0.72508770  0.43594581  1
  S  S7  2  0.45087132  0.03662731  0.05870416  1
