# generated using pymatgen
data_Li3PS4
_symmetry_space_group_name_H-M   P2_1
_cell_length_a   6.85603965
_cell_length_b   5.83261487
_cell_length_c   7.26771455
_cell_angle_alpha   90.00000000
_cell_angle_beta   91.82677274
_cell_angle_gamma   90.00000000
_symmetry_Int_Tables_number   4
_chemical_formula_structural   Li3PS4
_chemical_formula_sum   'Li6 P2 S8'
_cell_volume   290.47830807
_cell_formula_units_Z   2
loop_
 _symmetry_equiv_pos_site_id
 _symmetry_equiv_pos_as_xyz
  1  'x, y, z'
  2  '-x, y+1/2, -z'
loop_
 _atom_site_type_symbol
 _atom_site_label
 _atom_site_symmetry_multiplicity
 _atom_site_fract_x
 _atom_site_fract_y
 _atom_site_fract_z
 _atom_site_occupancy
  Li  Li0  2  0.00058819  0.39782626  0.80985557  1
  Li  Li1  2  0.32607378  0.39999720  0.51585515  1
  Li  Li2  2  0.47515813  0.40146086  0.97024021  1
  P  P3  2  0.26313171  0.99873047  0.75844928  1
  S  S4  2  0.07147590  0.12106305  0.56835876  1
  S  S5  2  0.20344685  0.13230498  0.01220286  1
  S  S6  2  0.27947914  0.65335879  0.77554835  1
  S  S7  2  0.46325970  0.62832486  0.28547318  1
