# generated using pymatgen
data_Li3PS4
_symmetry_space_group_name_H-M   Pmn2_1
_cell_length_a   7.63260345
_cell_length_b   6.15442498
_cell_length_c   5.95678114
_cell_angle_alpha   90.00000000
_cell_angle_beta   90.00000000
_cell_angle_gamma   90.00000000
_symmetry_Int_Tables_number   31
_chemical_formula_structural   Li3PS4
_chemical_formula_sum   'Li6 P2 S8'
_cell_volume   279.81553715
_cell_formula_units_Z   2
loop_
 _symmetry_equiv_pos_site_id
 _symmetry_equiv_pos_as_xyz
  1  'x, y, z'
  2  '-x+1/2, -y, z+1/2'
  3  '-x, y, z'
  4  'x+1/2, -y, z+1/2'
loop_
 _atom_site_type_symbol
 _atom_site_label
 _atom_site_symmetry_multiplicity
 _atom_site_fract_x
 _atom_site_fract_y
 _atom_site_fract_z
 _atom_site_occupancy
  Li  Li0  4  0.23120216  0.22457698  0.68295766  1
  Li  Li1  2  0.00000000  0.43561188  0.24405174  1
  P  P2  2  0.00000000  0.76975907  0.64848389  1
  S  S3  4  0.21167893  0.60129151  0.53288743  1
  S  S4  2  0.00000000  0.06087174  0.48787577  1
  S  S5  2  0.00000000  0.81964532  0.98560070  1
