# generated using pymatgen
data_Li3PS4
_symmetry_space_group_name_H-M   P2_1
_cell_length_a   6.32822979
_cell_length_b   6.57452558
_cell_length_c   6.72354659
_cell_angle_alpha   90.00000000
_cell_angle_beta   90.95291330
_cell_angle_gamma   90.00000000
_symmetry_Int_Tables_number   4
_chemical_formula_structural   Li3PS4
_chemical_formula_sum   'Li6 P2 S8'
_cell_volume   279.69519855
_cell_formula_units_Z   2
loop_
 _symmetry_equiv_pos_site_id
 _symmetry_equiv_pos_as_xyz
  1  'x, y, z'
  2  '-x, y+1/2, -z'
loop_
 _atom_site_type_symbol
 _atom_site_label
 _atom_site_symmetry_multiplicity
 _atom_site_fract_x
 _atom_site_fract_y
 _atom_site_fract_z
 _atom_site_occupancy
  Li  Li0  2  0.14789702  0.23255243  0.79658785  1
  Li  Li1  2  0.29507015  0.41018936  0.40174720  1
  Li  Li2  2  0.30725588  0.81508640  0.85527944  1
  P  P3  2  0.19777017  0.98975196  0.29646443  1
  S  S4  2  0.11100155  0.56350163  0.67097040  1
  S  S5  2  0.22037461  0.70462620  0.18391979  1
  S  S6  2  0.33564568  0.18171347  0.09800004  1
  S  S7  2  0.35613203  0.04822099  0.55919532  1
