# generated using pymatgen
data_Li3PS4
_symmetry_space_group_name_H-M   P2_1
_cell_length_a   6.39541165
_cell_length_b   6.56645867
_cell_length_c   6.64000264
_cell_angle_alpha   90.00000000
_cell_angle_beta   92.67290561
_cell_angle_gamma   90.00000000
_symmetry_Int_Tables_number   4
_chemical_formula_structural   Li3PS4
_chemical_formula_sum   'Li6 P2 S8'
_cell_volume   278.54490456
_cell_formula_units_Z   2
loop_
 _symmetry_equiv_pos_site_id
 _symmetry_equiv_pos_as_xyz
  1  'x, y, z'
  2  '-x, y+1/2, -z'
loop_
 _atom_site_type_symbol
 _atom_site_label
 _atom_site_symmetry_multiplicity
 _atom_site_fract_x
 _atom_site_fract_y
 _atom_site_fract_z
 _atom_site_occupancy
  Li  Li0  2  0.18443100  0.16957663  0.15016386  1
  Li  Li1  2  0.21091577  0.77000703  0.60142905  1
  Li  Li2  2  0.35822853  0.58365546  0.21859073  1
  P  P3  2  0.30019306  0.34918451  0.70727939  1
  S  S4  2  0.13496398  0.40712203  0.44150020  1
  S  S5  2  0.17235721  0.54392627  0.90681733  1
  S  S6  2  0.28054288  0.06477734  0.82319765  1
  S  S7  2  0.39604469  0.92168081  0.33243263  1
