# generated using pymatgen
data_Li3PS4
_symmetry_space_group_name_H-M   P2_1
_cell_length_a   5.88306297
_cell_length_b   7.44159183
_cell_length_c   6.58714430
_cell_angle_alpha   90.00000000
_cell_angle_beta   91.96309515
_cell_angle_gamma   90.00000000
_symmetry_Int_Tables_number   4
_chemical_formula_structural   Li3PS4
_chemical_formula_sum   'Li6 P2 S8'
_cell_volume   288.21166677
_cell_formula_units_Z   2
loop_
 _symmetry_equiv_pos_site_id
 _symmetry_equiv_pos_as_xyz
  1  'x, y, z'
  2  '-x, y+1/2, -z'
loop_
 _atom_site_type_symbol
 _atom_site_label
 _atom_site_symmetry_multiplicity
 _atom_site_fract_x
 _atom_site_fract_y
 _atom_site_fract_z
 _atom_site_occupancy
  Li  Li0  2  0.07592216  0.40074923  0.98397326  1
  Li  Li1  2  0.18041282  0.86247076  0.65642043  1
  Li  Li2  2  0.40178414  0.29706431  0.65492777  1
  P  P3  2  0.34723517  0.10062503  0.18334923  1
  S  S4  2  0.21023374  0.87389134  0.29921257  1
  S  S5  2  0.21907803  0.10819116  0.88991121  1
  S  S6  2  0.24398192  0.33028661  0.31956503  1
  S  S7  2  0.30968832  0.58797428  0.78310563  1
