# generated using pymatgen
data_Li3PS4
_symmetry_space_group_name_H-M   P2_1
_cell_length_a   6.20177401
_cell_length_b   5.94649197
_cell_length_c   7.59019285
_cell_angle_alpha   90.00000000
_cell_angle_beta   91.51738777
_cell_angle_gamma   90.00000000
_symmetry_Int_Tables_number   4
_chemical_formula_structural   Li3PS4
_chemical_formula_sum   'Li6 P2 S8'
_cell_volume   279.81904183
_cell_formula_units_Z   2
loop_
 _symmetry_equiv_pos_site_id
 _symmetry_equiv_pos_as_xyz
  1  'x, y, z'
  2  '-x, y+1/2, -z'
loop_
 _atom_site_type_symbol
 _atom_site_label
 _atom_site_symmetry_multiplicity
 _atom_site_fract_x
 _atom_site_fract_y
 _atom_site_fract_z
 _atom_site_occupancy
  Li  Li0  2  0.17958753  0.40672764  0.48836539  1
  Li  Li1  2  0.25228214  0.48121956  0.95819072  1
  Li  Li2  2  0.44194340  0.89551523  0.74982247  1
  P  P3  2  0.23089865  0.98422838  0.24891669  1
  S  S4  2  0.06013220  0.63810216  0.71759051  1
  S  S5  2  0.18548976  0.64707366  0.23365486  1
  S  S6  2  0.37523780  0.11116598  0.03066534  1
  S  S7  2  0.41915040  0.09426698  0.45440957  1
