# generated using pymatgen
data_Li3PS4
_symmetry_space_group_name_H-M   P2_1
_cell_length_a   5.99793195
_cell_length_b   6.57156911
_cell_length_c   6.86193700
_cell_angle_alpha   90.00000000
_cell_angle_beta   90.99873079
_cell_angle_gamma   90.00000000
_symmetry_Int_Tables_number   4
_chemical_formula_structural   Li3PS4
_chemical_formula_sum   'Li6 P2 S8'
_cell_volume   270.42781400
_cell_formula_units_Z   2
loop_
 _symmetry_equiv_pos_site_id
 _symmetry_equiv_pos_as_xyz
  1  'x, y, z'
  2  '-x, y+1/2, -z'
loop_
 _atom_site_type_symbol
 _atom_site_label
 _atom_site_symmetry_multiplicity
 _atom_site_fract_x
 _atom_site_fract_y
 _atom_site_fract_z
 _atom_site_occupancy
  Li  Li0  2  0.21214757  0.22547986  0.57827161  1
  Li  Li1  2  0.23624349  0.29044420  0.10894798  1
  Li  Li2  2  0.27255709  0.78337926  0.35115378  1
  P  P3  2  0.24472808  0.63276027  0.78481168  1
  S  S4  2  0.01121207  0.42079073  0.84695917  1
  S  S5  2  0.07003917  0.87270401  0.66117244  1
  S  S6  2  0.42334091  0.67094402  0.03262531  1
  S  S7  2  0.45201903  0.53338650  0.56773613  1
