# generated using pymatgen
data_Li3PS4
_symmetry_space_group_name_H-M   P2_1
_cell_length_a   6.31800552
_cell_length_b   6.73041076
_cell_length_c   6.69086312
_cell_angle_alpha   90.00000000
_cell_angle_beta   91.19768492
_cell_angle_gamma   90.00000000
_symmetry_Int_Tables_number   4
_chemical_formula_structural   Li3PS4
_chemical_formula_sum   'Li6 P2 S8'
_cell_volume   284.45189078
_cell_formula_units_Z   2
loop_
 _symmetry_equiv_pos_site_id
 _symmetry_equiv_pos_as_xyz
  1  'x, y, z'
  2  '-x, y+1/2, -z'
loop_
 _atom_site_type_symbol
 _atom_site_label
 _atom_site_symmetry_multiplicity
 _atom_site_fract_x
 _atom_site_fract_y
 _atom_site_fract_z
 _atom_site_occupancy
  Li  Li0  2  0.13590287  0.75059537  0.79593430  1
  Li  Li1  2  0.29335867  0.95589628  0.39034258  1
  Li  Li2  2  0.31439580  0.32634100  0.83635141  1
  P  P3  2  0.19645376  0.52579157  0.29755730  1
  S  S4  2  0.11796059  0.07571467  0.67083124  1
  S  S5  2  0.23475090  0.25213364  0.17659364  1
  S  S6  2  0.31765629  0.73060776  0.10708217  1
  S  S7  2  0.35258947  0.57658198  0.56415739  1
