# generated using pymatgen
data_Li3PS4
_symmetry_space_group_name_H-M   P2_1
_cell_length_a   6.46881683
_cell_length_b   6.77834995
_cell_length_c   6.50190995
_cell_angle_alpha   90.00000000
_cell_angle_beta   92.89123589
_cell_angle_gamma   90.00000000
_symmetry_Int_Tables_number   4
_chemical_formula_structural   Li3PS4
_chemical_formula_sum   'Li6 P2 S8'
_cell_volume   284.73222280
_cell_formula_units_Z   2
loop_
 _symmetry_equiv_pos_site_id
 _symmetry_equiv_pos_as_xyz
  1  'x, y, z'
  2  '-x, y+1/2, -z'
loop_
 _atom_site_type_symbol
 _atom_site_label
 _atom_site_symmetry_multiplicity
 _atom_site_fract_x
 _atom_site_fract_y
 _atom_site_fract_z
 _atom_site_occupancy
  Li  Li0  2  0.16717500  0.67955088  0.18634061  1
  Li  Li1  2  0.21687872  0.33927953  0.62551153  1
  Li  Li2  2  0.37687730  0.10962204  0.23222186  1
  P  P3  2  0.29753828  0.90066525  0.71057265  1
  S  S4  2  0.13209377  0.94822421  0.43854486  1
  S  S5  2  0.19550534  0.11016969  0.90462463  1
  S  S6  2  0.26785067  0.63216541  0.84201497  1
  S  S7  2  0.39756014  0.44364645  0.34214343  1
