# generated using pymatgen
data_Li3PS4
_symmetry_space_group_name_H-M   P2_1
_cell_length_a   6.22745843
_cell_length_b   7.08729184
_cell_length_c   6.24497098
_cell_angle_alpha   90.00000000
_cell_angle_beta   91.95895498
_cell_angle_gamma   90.00000000
_symmetry_Int_Tables_number   4
_chemical_formula_structural   Li3PS4
_chemical_formula_sum   'Li6 P2 S8'
_cell_volume   275.46580168
_cell_formula_units_Z   2
loop_
 _symmetry_equiv_pos_site_id
 _symmetry_equiv_pos_as_xyz
  1  'x, y, z'
  2  '-x, y+1/2, -z'
loop_
 _atom_site_type_symbol
 _atom_site_label
 _atom_site_symmetry_multiplicity
 _atom_site_fract_x
 _atom_site_fract_y
 _atom_site_fract_z
 _atom_site_occupancy
  Li  Li0  2  0.20656811  0.43932192  0.73445549  1
  Li  Li1  2  0.23687565  0.64128038  0.23767507  1
  Li  Li2  2  0.26768859  0.14534487  0.24936218  1
  P  P3  2  0.25322288  0.91193987  0.75380580  1
  S  S4  2  0.04190528  0.76720014  0.93713282  1
  S  S5  2  0.07736930  0.09602030  0.56683208  1
  S  S6  2  0.42101130  0.74315258  0.55655110  1
  S  S7  2  0.46249979  0.04757803  0.95447752  1
