# generated using pymatgen
data_Li3PS4
_symmetry_space_group_name_H-M   P2_1
_cell_length_a   6.31934756
_cell_length_b   6.58202217
_cell_length_c   6.71610241
_cell_angle_alpha   90.00000000
_cell_angle_beta   91.57945435
_cell_angle_gamma   90.00000000
_symmetry_Int_Tables_number   4
_chemical_formula_structural   Li3PS4
_chemical_formula_sum   'Li6 P2 S8'
_cell_volume   279.24400372
_cell_formula_units_Z   2
loop_
 _symmetry_equiv_pos_site_id
 _symmetry_equiv_pos_as_xyz
  1  'x, y, z'
  2  '-x, y+1/2, -z'
loop_
 _atom_site_type_symbol
 _atom_site_label
 _atom_site_symmetry_multiplicity
 _atom_site_fract_x
 _atom_site_fract_y
 _atom_site_fract_z
 _atom_site_occupancy
  Li  Li0  2  0.19189265  0.27980803  0.14543455  1
  Li  Li1  2  0.20904502  0.87377271  0.60092685  1
  Li  Li2  2  0.35071305  0.69583490  0.20844345  1
  P  P3  2  0.30168285  0.45380467  0.70432216  1
  S  S4  2  0.13974881  0.51179245  0.44158109  1
  S  S5  2  0.16589647  0.64508912  0.90313017  1
  S  S6  2  0.28100225  0.16943284  0.81828893  1
  S  S7  2  0.38973916  0.02804412  0.32996557  1
