# generated using pymatgen
data_Li3PS4
_symmetry_space_group_name_H-M   P2_1
_cell_length_a   5.99959888
_cell_length_b   5.86262268
_cell_length_c   7.85125248
_cell_angle_alpha   90.00000000
_cell_angle_beta   91.71225019
_cell_angle_gamma   90.00000000
_symmetry_Int_Tables_number   4
_chemical_formula_structural   Li3PS4
_chemical_formula_sum   'Li6 P2 S8'
_cell_volume   276.03181706
_cell_formula_units_Z   2
loop_
 _symmetry_equiv_pos_site_id
 _symmetry_equiv_pos_as_xyz
  1  'x, y, z'
  2  '-x, y+1/2, -z'
loop_
 _atom_site_type_symbol
 _atom_site_label
 _atom_site_symmetry_multiplicity
 _atom_site_fract_x
 _atom_site_fract_y
 _atom_site_fract_z
 _atom_site_occupancy
  Li  Li0  2  0.07956333  0.68085479  0.21450807  1
  Li  Li1  2  0.21722925  0.10993405  0.47802537  1
  Li  Li2  2  0.45105107  0.22607604  0.95612725  1
  P  P3  2  0.30125134  0.62258259  0.73960998  1
  S  S4  2  0.13769546  0.48094917  0.93814390  1
  S  S5  2  0.16931877  0.50763611  0.51576906  1
  S  S6  2  0.28445398  0.96816065  0.75191798  1
  S  S7  2  0.37210073  0.02979046  0.21601841  1
