# generated using pymatgen
data_Li3PS4
_symmetry_space_group_name_H-M   P2_1
_cell_length_a   6.34434866
_cell_length_b   6.62440286
_cell_length_c   6.66089953
_cell_angle_alpha   90.00000000
_cell_angle_beta   94.14937097
_cell_angle_gamma   90.00000000
_symmetry_Int_Tables_number   4
_chemical_formula_structural   Li3PS4
_chemical_formula_sum   'Li6 P2 S8'
_cell_volume   279.20731732
_cell_formula_units_Z   2
loop_
 _symmetry_equiv_pos_site_id
 _symmetry_equiv_pos_as_xyz
  1  'x, y, z'
  2  '-x, y+1/2, -z'
loop_
 _atom_site_type_symbol
 _atom_site_label
 _atom_site_symmetry_multiplicity
 _atom_site_fract_x
 _atom_site_fract_y
 _atom_site_fract_z
 _atom_site_occupancy
  Li  Li0  2  0.19302578  0.13969954  0.65301138  1
  Li  Li1  2  0.26596574  0.56575247  0.89568485  1
  Li  Li2  2  0.38115823  0.29926631  0.28626461  1
  P  P3  2  0.27967045  0.87321614  0.20738426  1
  S  S4  2  0.07622266  0.08560987  0.29607817  1
  S  S5  2  0.15015237  0.59681183  0.22828786  1
  S  S6  2  0.35666310  0.92383982  0.91770159  1
  S  S7  2  0.44560348  0.42726459  0.61947715  1
