# generated using pymatgen
data_Li3PS4
_symmetry_space_group_name_H-M   P2_1
_cell_length_a   6.30391572
_cell_length_b   6.75238299
_cell_length_c   6.65758425
_cell_angle_alpha   90.00000000
_cell_angle_beta   91.04846264
_cell_angle_gamma   90.00000000
_symmetry_Int_Tables_number   4
_chemical_formula_structural   Li3PS4
_chemical_formula_sum   'Li6 P2 S8'
_cell_volume   283.34230237
_cell_formula_units_Z   2
loop_
 _symmetry_equiv_pos_site_id
 _symmetry_equiv_pos_as_xyz
  1  'x, y, z'
  2  '-x, y+1/2, -z'
loop_
 _atom_site_type_symbol
 _atom_site_label
 _atom_site_symmetry_multiplicity
 _atom_site_fract_x
 _atom_site_fract_y
 _atom_site_fract_z
 _atom_site_occupancy
  Li  Li0  2  0.19174891  0.35820436  0.65864345  1
  Li  Li1  2  0.20674121  0.96965212  0.10741566  1
  Li  Li2  2  0.35749597  0.78165545  0.70613969  1
  P  P3  2  0.30203540  0.54673633  0.20310624  1
  S  S4  2  0.14399064  0.60069527  0.93716628  1
  S  S5  2  0.17254293  0.74406678  0.39773613  1
  S  S6  2  0.27132336  0.27125714  0.32057540  1
  S  S7  2  0.38479160  0.10624235  0.83007350  1
