# generated using pymatgen
data_Li3PS4
_symmetry_space_group_name_H-M   P2_1
_cell_length_a   6.12421399
_cell_length_b   6.86072274
_cell_length_c   6.38417745
_cell_angle_alpha   90.00000000
_cell_angle_beta   94.49448351
_cell_angle_gamma   90.00000000
_symmetry_Int_Tables_number   4
_chemical_formula_structural   Li3PS4
_chemical_formula_sum   'Li6 P2 S8'
_cell_volume   267.41613762
_cell_formula_units_Z   2
loop_
 _symmetry_equiv_pos_site_id
 _symmetry_equiv_pos_as_xyz
  1  'x, y, z'
  2  '-x, y+1/2, -z'
loop_
 _atom_site_type_symbol
 _atom_site_label
 _atom_site_symmetry_multiplicity
 _atom_site_fract_x
 _atom_site_fract_y
 _atom_site_fract_z
 _atom_site_occupancy
  Li  Li0  2  0.22822338  0.65606339  0.23683081  1
  Li  Li1  2  0.23669426  0.14776780  0.21223196  1
  Li  Li2  2  0.25996351  0.83038635  0.68699110  1
  P  P3  2  0.25396667  0.30525643  0.74416800  1
  S  S4  2  0.05207567  0.43414786  0.94512128  1
  S  S5  2  0.05595327  0.14867576  0.53399481  1
  S  S6  2  0.44191689  0.11155028  0.91663768  1
  S  S7  2  0.44620132  0.48690547  0.58151900  1
