# generated using pymatgen
data_Li3PS4
_symmetry_space_group_name_H-M   P2_1
_cell_length_a   6.17974271
_cell_length_b   6.29614095
_cell_length_c   7.00478017
_cell_angle_alpha   90.00000000
_cell_angle_beta   93.07359407
_cell_angle_gamma   90.00000000
_symmetry_Int_Tables_number   4
_chemical_formula_structural   Li3PS4
_chemical_formula_sum   'Li6 P2 S8'
_cell_volume   272.15364732
_cell_formula_units_Z   2
loop_
 _symmetry_equiv_pos_site_id
 _symmetry_equiv_pos_as_xyz
  1  'x, y, z'
  2  '-x, y+1/2, -z'
loop_
 _atom_site_type_symbol
 _atom_site_label
 _atom_site_symmetry_multiplicity
 _atom_site_fract_x
 _atom_site_fract_y
 _atom_site_fract_z
 _atom_site_occupancy
  Li  Li0  2  0.23605302  0.25427452  0.67545936  1
  Li  Li1  2  0.26512906  0.80099979  0.56340936  1
  Li  Li2  2  0.27714597  0.88431146  0.07624981  1
  P  P3  2  0.25302441  0.34581169  0.22544172  1
  S  S4  2  0.06690152  0.49716752  0.41857707  1
  S  S5  2  0.07435065  0.22171583  0.00497083  1
  S  S6  2  0.40902139  0.10017006  0.36960818  1
  S  S7  2  0.48542654  0.54651445  0.13910745  1
