# generated using pymatgen
data_Li3PS4
_symmetry_space_group_name_H-M   P2_1
_cell_length_a   6.54425820
_cell_length_b   6.62110688
_cell_length_c   6.56699741
_cell_angle_alpha   90.00000000
_cell_angle_beta   92.09800854
_cell_angle_gamma   90.00000000
_symmetry_Int_Tables_number   4
_chemical_formula_structural   Li3PS4
_chemical_formula_sum   'Li6 P2 S8'
_cell_volume   284.35878526
_cell_formula_units_Z   2
loop_
 _symmetry_equiv_pos_site_id
 _symmetry_equiv_pos_as_xyz
  1  'x, y, z'
  2  '-x, y+1/2, -z'
loop_
 _atom_site_type_symbol
 _atom_site_label
 _atom_site_symmetry_multiplicity
 _atom_site_fract_x
 _atom_site_fract_y
 _atom_site_fract_z
 _atom_site_occupancy
  Li  Li0  2  0.17542337  0.25051311  0.17079024  1
  Li  Li1  2  0.22439083  0.82039860  0.37557635  1
  Li  Li2  2  0.38953865  0.10474691  0.79257509  1
  P  P3  2  0.29057976  0.53428332  0.70276726  1
  S  S4  2  0.09478371  0.32552343  0.81185464  1
  S  S5  2  0.16585961  0.81198394  0.72948983  1
  S  S6  2  0.34142694  0.48095560  0.40313397  1
  S  S7  2  0.43971729  0.98249362  0.13568488  1
