# generated using pymatgen
data_Li3PS4
_symmetry_space_group_name_H-M   P2_1/m
_cell_length_a   6.09372729
_cell_length_b   6.93764034
_cell_length_c   6.38951011
_cell_angle_alpha   90.00000000
_cell_angle_beta   91.51877701
_cell_angle_gamma   90.00000000
_symmetry_Int_Tables_number   11
_chemical_formula_structural   Li3PS4
_chemical_formula_sum   'Li6 P2 S8'
_cell_volume   270.02859740
_cell_formula_units_Z   2
loop_
 _symmetry_equiv_pos_site_id
 _symmetry_equiv_pos_as_xyz
  1  'x, y, z'
  2  '-x, -y, -z'
  3  '-x, y+1/2, -z'
  4  'x, -y+1/2, z'
loop_
 _atom_site_type_symbol
 _atom_site_label
 _atom_site_symmetry_multiplicity
 _atom_site_fract_x
 _atom_site_fract_y
 _atom_site_fract_z
 _atom_site_occupancy
  Li  Li0  4  0.26304942  0.03390739  0.09996469  1
  Li  Li1  2  0.22049971  0.75000000  0.50044541  1
  P  P2  2  0.27312326  0.25000000  0.67991943  1
  S  S3  4  0.09703961  0.01031526  0.74336317  1
  S  S4  2  0.39094404  0.25000000  0.38561066  1
  S  S5  2  0.46766630  0.75000000  0.10716772  1
