# generated using pymatgen
data_Li3PS4
_symmetry_space_group_name_H-M   P2_1
_cell_length_a   6.37697888
_cell_length_b   6.67277634
_cell_length_c   6.64439955
_cell_angle_alpha   90.00000000
_cell_angle_beta   91.44505045
_cell_angle_gamma   90.00000000
_symmetry_Int_Tables_number   4
_chemical_formula_structural   Li3PS4
_chemical_formula_sum   'Li6 P2 S8'
_cell_volume   282.64359380
_cell_formula_units_Z   2
loop_
 _symmetry_equiv_pos_site_id
 _symmetry_equiv_pos_as_xyz
  1  'x, y, z'
  2  '-x, y+1/2, -z'
loop_
 _atom_site_type_symbol
 _atom_site_label
 _atom_site_symmetry_multiplicity
 _atom_site_fract_x
 _atom_site_fract_y
 _atom_site_fract_z
 _atom_site_occupancy
  Li  Li0  2  0.18986095  0.27460422  0.65283523  1
  Li  Li1  2  0.20423973  0.88138327  0.10177132  1
  Li  Li2  2  0.35810888  0.69588941  0.70638322  1
  P  P3  2  0.30223575  0.45956005  0.20345586  1
  S  S4  2  0.14351810  0.51542749  0.93714232  1
  S  S5  2  0.17079825  0.65541607  0.39968152  1
  S  S6  2  0.27575672  0.17961118  0.31911212  1
  S  S7  2  0.38974298  0.02475799  0.82973108  1
