# generated using pymatgen
data_Li3PS4
_symmetry_space_group_name_H-M   P2_1
_cell_length_a   6.47497859
_cell_length_b   6.49022978
_cell_length_c   6.65971626
_cell_angle_alpha   90.00000000
_cell_angle_beta   92.45540019
_cell_angle_gamma   90.00000000
_symmetry_Int_Tables_number   4
_chemical_formula_structural   Li3PS4
_chemical_formula_sum   'Li6 P2 S8'
_cell_volume   279.61162002
_cell_formula_units_Z   2
loop_
 _symmetry_equiv_pos_site_id
 _symmetry_equiv_pos_as_xyz
  1  'x, y, z'
  2  '-x, y+1/2, -z'
loop_
 _atom_site_type_symbol
 _atom_site_label
 _atom_site_symmetry_multiplicity
 _atom_site_fract_x
 _atom_site_fract_y
 _atom_site_fract_z
 _atom_site_occupancy
  Li  Li0  2  0.18052335  0.17823139  0.14992847  1
  Li  Li1  2  0.20994236  0.78342521  0.59969904  1
  Li  Li2  2  0.36077833  0.59307694  0.22219572  1
  P  P3  2  0.29902611  0.36126630  0.70902862  1
  S  S4  2  0.13434224  0.41905299  0.44461696  1
  S  S5  2  0.17375046  0.55717190  0.91007769  1
  S  S6  2  0.28180695  0.07354043  0.82447395  1
  S  S7  2  0.40165183  0.93675203  0.33487477  1
