# generated using pymatgen
data_Li3PS4
_symmetry_space_group_name_H-M   P2_1
_cell_length_a   5.92292483
_cell_length_b   7.38418888
_cell_length_c   6.39223927
_cell_angle_alpha   90.00000000
_cell_angle_beta   92.99897820
_cell_angle_gamma   90.00000000
_symmetry_Int_Tables_number   4
_chemical_formula_structural   Li3PS4
_chemical_formula_sum   'Li6 P2 S8'
_cell_volume   279.18806808
_cell_formula_units_Z   2
loop_
 _symmetry_equiv_pos_site_id
 _symmetry_equiv_pos_as_xyz
  1  'x, y, z'
  2  '-x, y+1/2, -z'
loop_
 _atom_site_type_symbol
 _atom_site_label
 _atom_site_symmetry_multiplicity
 _atom_site_fract_x
 _atom_site_fract_y
 _atom_site_fract_z
 _atom_site_occupancy
  Li  Li0  2  0.13781936  0.37271360  0.14188379  1
  Li  Li1  2  0.15242715  0.12698979  0.68212673  1
  Li  Li2  2  0.46343894  0.87780487  0.48899040  1
  P  P3  2  0.15105298  0.60646304  0.67648870  1
  S  S4  2  0.19167296  0.09642014  0.31185538  1
  S  S5  2  0.25396409  0.61340827  0.37367681  1
  S  S6  2  0.26751511  0.83215753  0.82939605  1
  S  S7  2  0.31307839  0.39583319  0.82370600  1
