# generated using pymatgen
data_Li3PS4
_symmetry_space_group_name_H-M   P2_1/m
_cell_length_a   6.21185662
_cell_length_b   6.89775712
_cell_length_c   6.33127111
_cell_angle_alpha   90.00000000
_cell_angle_beta   90.04688906
_cell_angle_gamma   90.00000000
_symmetry_Int_Tables_number   11
_chemical_formula_structural   Li3PS4
_chemical_formula_sum   'Li6 P2 S8'
_cell_volume   271.28144282
_cell_formula_units_Z   2
loop_
 _symmetry_equiv_pos_site_id
 _symmetry_equiv_pos_as_xyz
  1  'x, y, z'
  2  '-x, -y, -z'
  3  '-x, y+1/2, -z'
  4  'x, -y+1/2, z'
loop_
 _atom_site_type_symbol
 _atom_site_label
 _atom_site_symmetry_multiplicity
 _atom_site_fract_x
 _atom_site_fract_y
 _atom_site_fract_z
 _atom_site_occupancy
  Li  Li0  4  0.23783635  0.03126787  0.40253753  1
  Li  Li1  2  0.26128467  0.75000000  0.99336397  1
  P  P2  2  0.22865345  0.25000000  0.82605780  1
  S  S3  4  0.40041193  0.00896883  0.75590451  1
  S  S4  2  0.02955130  0.75000000  0.37896785  1
  S  S5  2  0.11367659  0.25000000  0.12576012  1
