# generated using pymatgen
data_Li3PS4
_symmetry_space_group_name_H-M   P2_1
_cell_length_a   6.12490681
_cell_length_b   5.90591547
_cell_length_c   7.85038055
_cell_angle_alpha   90.00000000
_cell_angle_beta   91.52761624
_cell_angle_gamma   90.00000000
_symmetry_Int_Tables_number   4
_chemical_formula_structural   Li3PS4
_chemical_formula_sum   'Li6 P2 S8'
_cell_volume   283.87231693
_cell_formula_units_Z   2
loop_
 _symmetry_equiv_pos_site_id
 _symmetry_equiv_pos_as_xyz
  1  'x, y, z'
  2  '-x, y+1/2, -z'
loop_
 _atom_site_type_symbol
 _atom_site_label
 _atom_site_symmetry_multiplicity
 _atom_site_fract_x
 _atom_site_fract_y
 _atom_site_fract_z
 _atom_site_occupancy
  Li  Li0  2  0.06433716  0.53640936  0.25005527  1
  Li  Li1  2  0.25544654  0.11144680  0.02858369  1
  Li  Li2  2  0.29037058  0.07206745  0.49846727  1
  P  P3  2  0.26982488  0.62047762  0.75118033  1
  S  S4  2  0.08865571  0.73619387  0.54777567  1
  S  S5  2  0.11995520  0.74419768  0.96151114  1
  S  S6  2  0.30516849  0.27864572  0.75953725  1
  S  S7  2  0.43197123  0.26829013  0.26798340  1
