# generated using pymatgen
data_Li3PS4
_symmetry_space_group_name_H-M   P2_1
_cell_length_a   6.27685074
_cell_length_b   6.35422735
_cell_length_c   6.91349084
_cell_angle_alpha   90.00000000
_cell_angle_beta   90.60539124
_cell_angle_gamma   90.00000000
_symmetry_Int_Tables_number   4
_chemical_formula_structural   Li3PS4
_chemical_formula_sum   'Li6 P2 S8'
_cell_volume   275.72598644
_cell_formula_units_Z   2
loop_
 _symmetry_equiv_pos_site_id
 _symmetry_equiv_pos_as_xyz
  1  'x, y, z'
  2  '-x, y+1/2, -z'
loop_
 _atom_site_type_symbol
 _atom_site_label
 _atom_site_symmetry_multiplicity
 _atom_site_fract_x
 _atom_site_fract_y
 _atom_site_fract_z
 _atom_site_occupancy
  Li  Li0  2  0.23691857  0.94637056  0.68663044  1
  Li  Li1  2  0.26561104  0.57879603  0.02320400  1
  Li  Li2  2  0.26578347  0.49564176  0.48913279  1
  P  P3  2  0.24924327  0.04853024  0.23430824  1
  S  S4  2  0.05272151  0.19034652  0.42988720  1
  S  S5  2  0.07474786  0.90819130  0.02461849  1
  S  S6  2  0.42615766  0.82500987  0.37519880  1
  S  S7  2  0.45428894  0.26896481  0.13312439  1
