# generated using pymatgen
data_Li3PS4
_symmetry_space_group_name_H-M   P2_1
_cell_length_a   6.12670896
_cell_length_b   6.80749142
_cell_length_c   6.49677219
_cell_angle_alpha   90.00000000
_cell_angle_beta   92.17365001
_cell_angle_gamma   90.00000000
_symmetry_Int_Tables_number   4
_chemical_formula_structural   Li3PS4
_chemical_formula_sum   'Li6 P2 S8'
_cell_volume   270.76927907
_cell_formula_units_Z   2
loop_
 _symmetry_equiv_pos_site_id
 _symmetry_equiv_pos_as_xyz
  1  'x, y, z'
  2  '-x, y+1/2, -z'
loop_
 _atom_site_type_symbol
 _atom_site_label
 _atom_site_symmetry_multiplicity
 _atom_site_fract_x
 _atom_site_fract_y
 _atom_site_fract_z
 _atom_site_occupancy
  Li  Li0  2  0.20192870  0.92391840  0.69086084  1
  Li  Li1  2  0.22535886  0.41508181  0.68892447  1
  Li  Li2  2  0.27147903  0.13209353  0.11693984  1
  P  P3  2  0.25458985  0.57559763  0.23974143  1
  S  S4  2  0.04585665  0.68304053  0.45211709  1
  S  S5  2  0.05091557  0.44099099  0.02570739  1
  S  S6  2  0.43082710  0.36050316  0.38481398  1
  S  S7  2  0.44902453  0.77782216  0.11058035  1
