# generated using pymatgen
data_Li3PS4
_symmetry_space_group_name_H-M   P2_1
_cell_length_a   6.21833084
_cell_length_b   6.30995628
_cell_length_c   7.02042942
_cell_angle_alpha   90.00000000
_cell_angle_beta   92.81281834
_cell_angle_gamma   90.00000000
_symmetry_Int_Tables_number   4
_chemical_formula_structural   Li3PS4
_chemical_formula_sum   'Li6 P2 S8'
_cell_volume   275.13148463
_cell_formula_units_Z   2
loop_
 _symmetry_equiv_pos_site_id
 _symmetry_equiv_pos_as_xyz
  1  'x, y, z'
  2  '-x, y+1/2, -z'
loop_
 _atom_site_type_symbol
 _atom_site_label
 _atom_site_symmetry_multiplicity
 _atom_site_fract_x
 _atom_site_fract_y
 _atom_site_fract_z
 _atom_site_occupancy
  Li  Li0  2  0.22310451  0.88188947  0.92675370  1
  Li  Li1  2  0.23599254  0.96729650  0.44522568  1
  Li  Li2  2  0.26715712  0.51763610  0.31963325  1
  P  P3  2  0.24721775  0.42149672  0.77217280  1
  S  S4  2  0.02023851  0.21819236  0.86268508  1
  S  S5  2  0.08836260  0.66407097  0.62908693  1
  S  S6  2  0.42768768  0.54932067  0.98810050  1
  S  S7  2  0.43348815  0.27125292  0.57898166  1
