# generated using pymatgen
data_Li3PS4
_symmetry_space_group_name_H-M   P2_1
_cell_length_a   6.16517817
_cell_length_b   6.53741289
_cell_length_c   6.83056378
_cell_angle_alpha   90.00000000
_cell_angle_beta   92.16059152
_cell_angle_gamma   90.00000000
_symmetry_Int_Tables_number   4
_chemical_formula_structural   Li3PS4
_chemical_formula_sum   'Li6 P2 S8'
_cell_volume   275.10547934
_cell_formula_units_Z   2
loop_
 _symmetry_equiv_pos_site_id
 _symmetry_equiv_pos_as_xyz
  1  'x, y, z'
  2  '-x, y+1/2, -z'
loop_
 _atom_site_type_symbol
 _atom_site_label
 _atom_site_symmetry_multiplicity
 _atom_site_fract_x
 _atom_site_fract_y
 _atom_site_fract_z
 _atom_site_occupancy
  Li  Li0  2  0.22690394  0.99419465  0.52970923  1
  Li  Li1  2  0.22804312  0.83482000  0.96789518  1
  Li  Li2  2  0.26198532  0.53394329  0.34715856  1
  P  P3  2  0.25869692  0.39935270  0.78370795  1
  S  S4  2  0.05202819  0.16758231  0.84610873  1
  S  S5  2  0.08356013  0.63538024  0.65804068  1
  S  S6  2  0.42348202  0.50538809  0.02198579  1
  S  S7  2  0.46008225  0.29189608  0.57377307  1
