# generated using pymatgen
data_Li3PS4
_symmetry_space_group_name_H-M   P2_1
_cell_length_a   6.02348364
_cell_length_b   6.01464503
_cell_length_c   7.76992584
_cell_angle_alpha   90.00000000
_cell_angle_beta   90.66922541
_cell_angle_gamma   90.00000000
_symmetry_Int_Tables_number   4
_chemical_formula_structural   Li3PS4
_chemical_formula_sum   'Li6 P2 S8'
_cell_volume   281.47834195
_cell_formula_units_Z   2
loop_
 _symmetry_equiv_pos_site_id
 _symmetry_equiv_pos_as_xyz
  1  'x, y, z'
  2  '-x, y+1/2, -z'
loop_
 _atom_site_type_symbol
 _atom_site_label
 _atom_site_symmetry_multiplicity
 _atom_site_fract_x
 _atom_site_fract_y
 _atom_site_fract_z
 _atom_site_occupancy
  Li  Li0  2  0.22072201  0.95612772  0.31626542  1
  Li  Li1  2  0.24781758  0.49203279  0.01955746  1
  Li  Li2  2  0.25409310  0.49191431  0.52778823  1
  P  P3  2  0.24952107  0.99518470  0.74996642  1
  S  S4  2  0.04566842  0.80231629  0.59854275  1
  S  S5  2  0.04733468  0.20919964  0.87851318  1
  S  S6  2  0.44044718  0.78720597  0.89202050  1
  S  S7  2  0.45495696  0.18093432  0.60048524  1
