# generated using pymatgen
data_Li3PS4
_symmetry_space_group_name_H-M   P2_1
_cell_length_a   6.19624118
_cell_length_b   6.46443085
_cell_length_c   6.89265442
_cell_angle_alpha   90.00000000
_cell_angle_beta   92.63138027
_cell_angle_gamma   90.00000000
_symmetry_Int_Tables_number   4
_chemical_formula_structural   Li3PS4
_chemical_formula_sum   'Li6 P2 S8'
_cell_volume   275.79535038
_cell_formula_units_Z   2
loop_
 _symmetry_equiv_pos_site_id
 _symmetry_equiv_pos_as_xyz
  1  'x, y, z'
  2  '-x, y+1/2, -z'
loop_
 _atom_site_type_symbol
 _atom_site_label
 _atom_site_symmetry_multiplicity
 _atom_site_fract_x
 _atom_site_fract_y
 _atom_site_fract_z
 _atom_site_occupancy
  Li  Li0  2  0.22571406  0.79930621  0.95729118  1
  Li  Li1  2  0.23109140  0.92966255  0.51044980  1
  Li  Li2  2  0.26350619  0.47551053  0.33425857  1
  P  P3  2  0.25565961  0.35451970  0.77924666  1
  S  S4  2  0.04408402  0.13171463  0.85441888  1
  S  S5  2  0.08414189  0.59061176  0.64526867  1
  S  S6  2  0.42575940  0.47159835  0.00889176  1
  S  S7  2  0.45096720  0.23239291  0.57474290  1
