# generated using pymatgen
data_Li3PS4
_symmetry_space_group_name_H-M   P2_1
_cell_length_a   6.17821840
_cell_length_b   6.41448085
_cell_length_c   6.85479815
_cell_angle_alpha   90.00000000
_cell_angle_beta   91.72245005
_cell_angle_gamma   90.00000000
_symmetry_Int_Tables_number   4
_chemical_formula_structural   Li3PS4
_chemical_formula_sum   'Li6 P2 S8'
_cell_volume   271.53334162
_cell_formula_units_Z   2
loop_
 _symmetry_equiv_pos_site_id
 _symmetry_equiv_pos_as_xyz
  1  'x, y, z'
  2  '-x, y+1/2, -z'
loop_
 _atom_site_type_symbol
 _atom_site_label
 _atom_site_symmetry_multiplicity
 _atom_site_fract_x
 _atom_site_fract_y
 _atom_site_fract_z
 _atom_site_occupancy
  Li  Li0  2  0.22612207  0.68706189  0.41274674  1
  Li  Li1  2  0.23898557  0.60615367  0.92168077  1
  Li  Li2  2  0.27177250  0.05024832  0.81204475  1
  P  P3  2  0.24704122  0.14860649  0.26643551  1
  S  S4  2  0.02019786  0.34582974  0.36985410  1
  S  S5  2  0.08783350  0.91106158  0.12183387  1
  S  S6  2  0.43113286  0.30360531  0.06883532  1
  S  S7  2  0.43738081  0.01479150  0.47530245  1
