# generated using pymatgen
data_Li3PS4
_symmetry_space_group_name_H-M   P2_1
_cell_length_a   5.95216505
_cell_length_b   5.91673662
_cell_length_c   7.39101383
_cell_angle_alpha   90.00000000
_cell_angle_beta   90.17530860
_cell_angle_gamma   90.00000000
_symmetry_Int_Tables_number   4
_chemical_formula_structural   Li3PS4
_chemical_formula_sum   'Li6 P2 S8'
_cell_volume   260.29101989
_cell_formula_units_Z   2
loop_
 _symmetry_equiv_pos_site_id
 _symmetry_equiv_pos_as_xyz
  1  'x, y, z'
  2  '-x, y+1/2, -z'
loop_
 _atom_site_type_symbol
 _atom_site_label
 _atom_site_symmetry_multiplicity
 _atom_site_fract_x
 _atom_site_fract_y
 _atom_site_fract_z
 _atom_site_occupancy
  Li  Li0  2  0.24652547  0.47114674  0.36798838  1
  Li  Li1  2  0.25160749  0.47655548  0.88553423  1
  Li  Li2  2  0.26219543  0.99088607  0.69016155  1
  P  P3  2  0.25099797  0.97233618  0.24818977  1
  S  S4  2  0.02520454  0.80341645  0.40551250  1
  S  S5  2  0.07625482  0.20629770  0.10350954  1
  S  S6  2  0.42769301  0.73278365  0.10929704  1
  S  S7  2  0.48076777  0.14449594  0.40131898  1
