# generated using pymatgen
data_Li3PS4
_symmetry_space_group_name_H-M   P2_1
_cell_length_a   5.92937719
_cell_length_b   5.92782695
_cell_length_c   7.34244289
_cell_angle_alpha   90.00000000
_cell_angle_beta   90.16977769
_cell_angle_gamma   90.00000000
_symmetry_Int_Tables_number   4
_chemical_formula_structural   Li3PS4
_chemical_formula_sum   'Li6 P2 S8'
_cell_volume   258.07341303
_cell_formula_units_Z   2
loop_
 _symmetry_equiv_pos_site_id
 _symmetry_equiv_pos_as_xyz
  1  'x, y, z'
  2  '-x, y+1/2, -z'
loop_
 _atom_site_type_symbol
 _atom_site_label
 _atom_site_symmetry_multiplicity
 _atom_site_fract_x
 _atom_site_fract_y
 _atom_site_fract_z
 _atom_site_occupancy
  Li  Li0  2  0.23711152  0.49631119  0.37702218  1
  Li  Li1  2  0.24514381  0.49016850  0.87401299  1
  Li  Li2  2  0.27493634  0.99347378  0.75419893  1
  P  P3  2  0.24815629  0.98709982  0.24965741  1
  S  S4  2  0.01278792  0.16524391  0.39198409  1
  S  S5  2  0.07589199  0.74779833  0.10620943  1
  S  S6  2  0.42236948  0.21288115  0.09391093  1
  S  S7  2  0.47934344  0.81847403  0.40512166  1
