# generated using pymatgen
data_Li3PS4
_symmetry_space_group_name_H-M   P2_1
_cell_length_a   6.16743457
_cell_length_b   6.20319526
_cell_length_c   7.05321101
_cell_angle_alpha   90.00000000
_cell_angle_beta   90.76388266
_cell_angle_gamma   90.00000000
_symmetry_Int_Tables_number   4
_chemical_formula_structural   Li3PS4
_chemical_formula_sum   'Li6 P2 S8'
_cell_volume   269.81636078
_cell_formula_units_Z   2
loop_
 _symmetry_equiv_pos_site_id
 _symmetry_equiv_pos_as_xyz
  1  'x, y, z'
  2  '-x, y+1/2, -z'
loop_
 _atom_site_type_symbol
 _atom_site_label
 _atom_site_symmetry_multiplicity
 _atom_site_fract_x
 _atom_site_fract_y
 _atom_site_fract_z
 _atom_site_occupancy
  Li  Li0  2  0.24040803  0.18678470  0.30283512  1
  Li  Li1  2  0.26245565  0.61468359  0.08837051  1
  Li  Li2  2  0.26976569  0.64287645  0.59322529  1
  P  P3  2  0.24999011  0.10497266  0.75782949  1
  S  S4  2  0.03768652  0.95902025  0.57276254  1
  S  S5  2  0.08345246  0.28325957  0.94588606  1
  S  S6  2  0.43510876  0.86471856  0.87480159  1
  S  S7  2  0.45899308  0.29924624  0.61423095  1
