# generated using pymatgen
data_Li3PS4
_symmetry_space_group_name_H-M   P2_1
_cell_length_a   5.92150668
_cell_length_b   5.98230420
_cell_length_c   7.34372428
_cell_angle_alpha   90.00000000
_cell_angle_beta   90.14067764
_cell_angle_gamma   90.00000000
_symmetry_Int_Tables_number   4
_chemical_formula_structural   Li3PS4
_chemical_formula_sum   'Li6 P2 S8'
_cell_volume   260.14517188
_cell_formula_units_Z   2
loop_
 _symmetry_equiv_pos_site_id
 _symmetry_equiv_pos_as_xyz
  1  'x, y, z'
  2  '-x, y+1/2, -z'
loop_
 _atom_site_type_symbol
 _atom_site_label
 _atom_site_symmetry_multiplicity
 _atom_site_fract_x
 _atom_site_fract_y
 _atom_site_fract_z
 _atom_site_occupancy
  Li  Li0  2  0.24289093  0.61992652  0.85617138  1
  Li  Li1  2  0.25255423  0.59494305  0.37532885  1
  Li  Li2  2  0.26519460  0.13799874  0.81150305  1
  P  P3  2  0.25446333  0.09819989  0.25360576  1
  S  S4  2  0.02535844  0.26737006  0.40575065  1
  S  S5  2  0.07868539  0.88122004  0.09259926  1
  S  S6  2  0.41940370  0.33358398  0.10093393  1
  S  S7  2  0.49628201  0.91941176  0.38889708  1
