# generated using pymatgen
data_Li3PS4
_symmetry_space_group_name_H-M   P2_1
_cell_length_a   6.03661612
_cell_length_b   6.54227280
_cell_length_c   6.83146701
_cell_angle_alpha   90.00000000
_cell_angle_beta   91.60910778
_cell_angle_gamma   90.00000000
_symmetry_Int_Tables_number   4
_chemical_formula_structural   Li3PS4
_chemical_formula_sum   'Li6 P2 S8'
_cell_volume   269.69003050
_cell_formula_units_Z   2
loop_
 _symmetry_equiv_pos_site_id
 _symmetry_equiv_pos_as_xyz
  1  'x, y, z'
  2  '-x, y+1/2, -z'
loop_
 _atom_site_type_symbol
 _atom_site_label
 _atom_site_symmetry_multiplicity
 _atom_site_fract_x
 _atom_site_fract_y
 _atom_site_fract_z
 _atom_site_occupancy
  Li  Li0  2  0.22734815  0.60435016  0.38536529  1
  Li  Li1  2  0.27256828  0.92934621  0.81327251  1
  Li  Li2  2  0.28169225  0.45469649  0.82164219  1
  P  P3  2  0.24269181  0.05941303  0.25759363  1
  S  S4  2  0.02690277  0.25640058  0.38104910  1
  S  S5  2  0.07661944  0.82994987  0.11623165  1
  S  S6  2  0.44025922  0.19671195  0.05757153  1
  S  S7  2  0.45206778  0.92265241  0.45784124  1
