# generated using pymatgen
data_Li3PS4
_symmetry_space_group_name_H-M   P2_1
_cell_length_a   6.09908477
_cell_length_b   6.00313004
_cell_length_c   7.25556098
_cell_angle_alpha   90.00000000
_cell_angle_beta   91.91093206
_cell_angle_gamma   90.00000000
_symmetry_Int_Tables_number   4
_chemical_formula_structural   Li3PS4
_chemical_formula_sum   'Li6 P2 S8'
_cell_volume   265.50446338
_cell_formula_units_Z   2
loop_
 _symmetry_equiv_pos_site_id
 _symmetry_equiv_pos_as_xyz
  1  'x, y, z'
  2  '-x, y+1/2, -z'
loop_
 _atom_site_type_symbol
 _atom_site_label
 _atom_site_symmetry_multiplicity
 _atom_site_fract_x
 _atom_site_fract_y
 _atom_site_fract_z
 _atom_site_occupancy
  Li  Li0  2  0.16171566  0.97550957  0.24994968  1
  Li  Li1  2  0.26633276  0.47574306  0.10648344  1
  Li  Li2  2  0.28790028  0.44461954  0.59401006  1
  P  P3  2  0.25137912  0.97838276  0.75200864  1
  S  S4  2  0.03115495  0.13830715  0.57873673  1
  S  S5  2  0.07535430  0.77657373  0.92037338  1
  S  S6  2  0.42440754  0.22451987  0.88176246  1
  S  S7  2  0.47627629  0.78664574  0.62457636  1
