# generated using pymatgen
data_Li3PS4
_symmetry_space_group_name_H-M   P2_1
_cell_length_a   6.18644887
_cell_length_b   6.45661990
_cell_length_c   6.89482816
_cell_angle_alpha   90.00000000
_cell_angle_beta   92.68509024
_cell_angle_gamma   90.00000000
_symmetry_Int_Tables_number   4
_chemical_formula_structural   Li3PS4
_chemical_formula_sum   'Li6 P2 S8'
_cell_volume   275.10153951
_cell_formula_units_Z   2
loop_
 _symmetry_equiv_pos_site_id
 _symmetry_equiv_pos_as_xyz
  1  'x, y, z'
  2  '-x, y+1/2, -z'
loop_
 _atom_site_type_symbol
 _atom_site_label
 _atom_site_symmetry_multiplicity
 _atom_site_fract_x
 _atom_site_fract_y
 _atom_site_fract_z
 _atom_site_occupancy
  Li  Li0  2  0.22561569  0.81480277  0.96565481  1
  Li  Li1  2  0.22674212  0.96315154  0.52775184  1
  Li  Li2  2  0.26189800  0.50159445  0.34207413  1
  P  P3  2  0.25801781  0.37590602  0.78221158  1
  S  S4  2  0.04909541  0.14555866  0.84794140  1
  S  S5  2  0.08345856  0.61308840  0.65312979  1
  S  S6  2  0.42356571  0.48522909  0.01809353  1
  S  S7  2  0.45774530  0.26265381  0.57695081  1
