# generated using pymatgen
data_Li3PS4
_symmetry_space_group_name_H-M   P2_1
_cell_length_a   6.01823820
_cell_length_b   5.96739787
_cell_length_c   7.83983185
_cell_angle_alpha   90.00000000
_cell_angle_beta   90.25829232
_cell_angle_gamma   90.00000000
_symmetry_Int_Tables_number   4
_chemical_formula_structural   Li3PS4
_chemical_formula_sum   'Li6 P2 S8'
_cell_volume   281.55075925
_cell_formula_units_Z   2
loop_
 _symmetry_equiv_pos_site_id
 _symmetry_equiv_pos_as_xyz
  1  'x, y, z'
  2  '-x, y+1/2, -z'
loop_
 _atom_site_type_symbol
 _atom_site_label
 _atom_site_symmetry_multiplicity
 _atom_site_fract_x
 _atom_site_fract_y
 _atom_site_fract_z
 _atom_site_occupancy
  Li  Li0  2  0.24508940  0.15025234  0.02997818  1
  Li  Li1  2  0.24970915  0.15083260  0.51795455  1
  Li  Li2  2  0.28682797  0.67685159  0.18852179  1
  P  P3  2  0.24966364  0.64431662  0.75052131  1
  S  S4  2  0.04499687  0.84343412  0.61269721  1
  S  S5  2  0.05761117  0.43702413  0.89409413  1
  S  S6  2  0.43701138  0.85128554  0.90348698  1
  S  S7  2  0.46822193  0.44805883  0.61970291  1
