# generated using pymatgen
data_Li3PS4
_symmetry_space_group_name_H-M   P2_1
_cell_length_a   6.01671154
_cell_length_b   6.83848036
_cell_length_c   6.64243014
_cell_angle_alpha   90.00000000
_cell_angle_beta   93.81521613
_cell_angle_gamma   90.00000000
_symmetry_Int_Tables_number   4
_chemical_formula_structural   Li3PS4
_chemical_formula_sum   'Li6 P2 S8'
_cell_volume   272.69818829
_cell_formula_units_Z   2
loop_
 _symmetry_equiv_pos_site_id
 _symmetry_equiv_pos_as_xyz
  1  'x, y, z'
  2  '-x, y+1/2, -z'
loop_
 _atom_site_type_symbol
 _atom_site_label
 _atom_site_symmetry_multiplicity
 _atom_site_fract_x
 _atom_site_fract_y
 _atom_site_fract_z
 _atom_site_occupancy
  Li  Li0  2  0.17732148  0.23095003  0.25931478  1
  Li  Li1  2  0.23402762  0.68001958  0.14611038  1
  Li  Li2  2  0.28575815  0.91084327  0.57802789  1
  P  P3  2  0.25696392  0.48531316  0.72748863  1
  S  S4  2  0.03312719  0.42743175  0.93753068  1
  S  S5  2  0.06922310  0.58585964  0.47911904  1
  S  S6  2  0.44485412  0.70687161  0.85206787  1
  S  S7  2  0.44707510  0.26134089  0.63763160  1
