# generated using pymatgen
data_Li3PS4
_symmetry_space_group_name_H-M   P2_1
_cell_length_a   6.02973964
_cell_length_b   5.99538632
_cell_length_c   7.30480099
_cell_angle_alpha   90.00000000
_cell_angle_beta   91.50453253
_cell_angle_gamma   90.00000000
_symmetry_Int_Tables_number   4
_chemical_formula_structural   Li3PS4
_chemical_formula_sum   'Li6 P2 S8'
_cell_volume   263.98203534
_cell_formula_units_Z   2
loop_
 _symmetry_equiv_pos_site_id
 _symmetry_equiv_pos_as_xyz
  1  'x, y, z'
  2  '-x, y+1/2, -z'
loop_
 _atom_site_type_symbol
 _atom_site_label
 _atom_site_symmetry_multiplicity
 _atom_site_fract_x
 _atom_site_fract_y
 _atom_site_fract_z
 _atom_site_occupancy
  Li  Li0  2  0.21647556  0.46149155  0.39939993  1
  Li  Li1  2  0.23538390  0.48756627  0.89039451  1
  Li  Li2  2  0.32349937  0.98768917  0.75270917  1
  P  P3  2  0.24889206  0.99073844  0.24849975  1
  S  S4  2  0.02033902  0.80208333  0.37868801  1
  S  S5  2  0.07538837  0.23540424  0.11591814  1
  S  S6  2  0.42460391  0.78465956  0.08232079  1
  S  S7  2  0.47196784  0.15230221  0.41760054  1
