# generated using pymatgen
data_Li3PS4
_symmetry_space_group_name_H-M   P2_1
_cell_length_a   6.02375784
_cell_length_b   6.01395062
_cell_length_c   7.71874595
_cell_angle_alpha   90.00000000
_cell_angle_beta   90.58468427
_cell_angle_gamma   90.00000000
_symmetry_Int_Tables_number   4
_chemical_formula_structural   Li3PS4
_chemical_formula_sum   'Li6 P2 S8'
_cell_volume   279.60922540
_cell_formula_units_Z   2
loop_
 _symmetry_equiv_pos_site_id
 _symmetry_equiv_pos_as_xyz
  1  'x, y, z'
  2  '-x, y+1/2, -z'
loop_
 _atom_site_type_symbol
 _atom_site_label
 _atom_site_symmetry_multiplicity
 _atom_site_fract_x
 _atom_site_fract_y
 _atom_site_fract_z
 _atom_site_occupancy
  Li  Li0  2  0.22366602  0.63440697  0.31883603  1
  Li  Li1  2  0.24766898  0.09933737  0.03228686  1
  Li  Li2  2  0.25379985  0.09901738  0.54354634  1
  P  P3  2  0.24883680  0.59692698  0.74996294  1
  S  S4  2  0.04038242  0.78566331  0.59897721  1
  S  S5  2  0.05209367  0.37772635  0.87889253  1
  S  S6  2  0.43704359  0.80794612  0.89242496  1
  S  S7  2  0.45739267  0.41589809  0.59768224  1
