# generated using pymatgen
data_Li3PS4
_symmetry_space_group_name_H-M   P2_1
_cell_length_a   6.23570326
_cell_length_b   6.31814158
_cell_length_c   7.02041919
_cell_angle_alpha   90.00000000
_cell_angle_beta   93.69100261
_cell_angle_gamma   90.00000000
_symmetry_Int_Tables_number   4
_chemical_formula_structural   Li3PS4
_chemical_formula_sum   'Li6 P2 S8'
_cell_volume   276.01714703
_cell_formula_units_Z   2
loop_
 _symmetry_equiv_pos_site_id
 _symmetry_equiv_pos_as_xyz
  1  'x, y, z'
  2  '-x, y+1/2, -z'
loop_
 _atom_site_type_symbol
 _atom_site_label
 _atom_site_symmetry_multiplicity
 _atom_site_fract_x
 _atom_site_fract_y
 _atom_site_fract_z
 _atom_site_occupancy
  Li  Li0  2  0.23857920  0.77329693  0.16919675  1
  Li  Li1  2  0.26523785  0.22927678  0.03993064  1
  Li  Li2  2  0.27663585  0.13263064  0.56187799  1
  P  P3  2  0.25082181  0.67511275  0.72068503  1
  S  S4  2  0.06194209  0.53374609  0.91486364  1
  S  S5  2  0.07884957  0.79374016  0.49340270  1
  S  S6  2  0.40905538  0.91984253  0.86365851  1
  S  S7  2  0.47749192  0.46716980  0.64188957  1
