# generated using pymatgen
data_Li3PS4
_symmetry_space_group_name_H-M   P2_12_12
_cell_length_a   5.98482142
_cell_length_b   5.98960230
_cell_length_c   7.19164068
_cell_angle_alpha   90.00000000
_cell_angle_beta   90.00000000
_cell_angle_gamma   90.00000000
_symmetry_Int_Tables_number   18
_chemical_formula_structural   Li3PS4
_chemical_formula_sum   'Li6 P2 S8'
_cell_volume   257.79658710
_cell_formula_units_Z   2
loop_
 _symmetry_equiv_pos_site_id
 _symmetry_equiv_pos_as_xyz
  1  'x, y, z'
  2  '-x, -y, z'
  3  'x+1/2, -y+1/2, -z'
  4  '-x+1/2, y+1/2, -z'
loop_
 _atom_site_type_symbol
 _atom_site_label
 _atom_site_symmetry_multiplicity
 _atom_site_fract_x
 _atom_site_fract_y
 _atom_site_fract_z
 _atom_site_occupancy
  Li  Li0  2  0.00000000  0.00000000  0.25869846  1
  Li  Li1  2  0.00000000  0.50000000  0.13015296  1
  Li  Li2  2  0.00000000  0.50000000  0.63240884  1
  P  P3  2  0.00000000  0.00000000  0.75031103  1
  S  S4  4  0.17180174  0.22997624  0.90371780  1
  S  S5  4  0.22717916  0.82779781  0.59458664  1
