# generated using pymatgen
data_Li3PS4
_symmetry_space_group_name_H-M   P2_1
_cell_length_a   6.03381219
_cell_length_b   6.28730793
_cell_length_c   6.97022358
_cell_angle_alpha   90.00000000
_cell_angle_beta   90.41213520
_cell_angle_gamma   90.00000000
_symmetry_Int_Tables_number   4
_chemical_formula_structural   Li3PS4
_chemical_formula_sum   'Li6 P2 S8'
_cell_volume   264.41859418
_cell_formula_units_Z   2
loop_
 _symmetry_equiv_pos_site_id
 _symmetry_equiv_pos_as_xyz
  1  'x, y, z'
  2  '-x, y+1/2, -z'
loop_
 _atom_site_type_symbol
 _atom_site_label
 _atom_site_symmetry_multiplicity
 _atom_site_fract_x
 _atom_site_fract_y
 _atom_site_fract_z
 _atom_site_occupancy
  Li  Li0  2  0.23407000  0.90360744  0.87618068  1
  Li  Li1  2  0.25989430  0.50961438  0.30466167  1
  Li  Li2  2  0.26114111  0.97606954  0.34178186  1
  P  P3  2  0.24278648  0.42673749  0.75520505  1
  S  S4  2  0.01093537  0.24097159  0.88573341  1
  S  S5  2  0.08101590  0.66013651  0.60618138  1
  S  S6  2  0.42759803  0.24777500  0.57212345  1
  S  S7  2  0.45567077  0.57782849  0.93702003  1
