# generated using pymatgen
data_Li3PS4
_symmetry_space_group_name_H-M   P2_1
_cell_length_a   6.11831973
_cell_length_b   6.16573983
_cell_length_c   7.03293760
_cell_angle_alpha   90.00000000
_cell_angle_beta   90.28471914
_cell_angle_gamma   90.00000000
_symmetry_Int_Tables_number   4
_chemical_formula_structural   Li3PS4
_chemical_formula_sum   'Li6 P2 S8'
_cell_volume   265.30703469
_cell_formula_units_Z   2
loop_
 _symmetry_equiv_pos_site_id
 _symmetry_equiv_pos_as_xyz
  1  'x, y, z'
  2  '-x, y+1/2, -z'
loop_
 _atom_site_type_symbol
 _atom_site_label
 _atom_site_symmetry_multiplicity
 _atom_site_fract_x
 _atom_site_fract_y
 _atom_site_fract_z
 _atom_site_occupancy
  Li  Li0  2  0.23541716  0.57654518  0.39009616  1
  Li  Li1  2  0.23992267  0.56642317  0.89424759  1
  Li  Li2  2  0.25770756  0.12028531  0.70847874  1
  P  P3  2  0.24895360  0.05273117  0.24521920  1
  S  S4  2  0.03287700  0.23900605  0.39326575  1
  S  S5  2  0.06803368  0.81603906  0.11606420  1
  S  S6  2  0.41853983  0.24754190  0.06810694  1
  S  S7  2  0.46343615  0.89802179  0.42349416  1
