# generated using pymatgen
data_Li3PS4
_symmetry_space_group_name_H-M   P2_12_12
_cell_length_a   5.90646301
_cell_length_b   5.93759512
_cell_length_c   7.35787982
_cell_angle_alpha   90.00000000
_cell_angle_beta   90.00000000
_cell_angle_gamma   90.00000000
_symmetry_Int_Tables_number   18
_chemical_formula_structural   Li3PS4
_chemical_formula_sum   'Li6 P2 S8'
_cell_volume   258.04221360
_cell_formula_units_Z   2
loop_
 _symmetry_equiv_pos_site_id
 _symmetry_equiv_pos_as_xyz
  1  'x, y, z'
  2  '-x, -y, z'
  3  'x+1/2, -y+1/2, -z'
  4  '-x+1/2, y+1/2, -z'
loop_
 _atom_site_type_symbol
 _atom_site_label
 _atom_site_symmetry_multiplicity
 _atom_site_fract_x
 _atom_site_fract_y
 _atom_site_fract_z
 _atom_site_occupancy
  Li  Li0  2  0.00000000  0.00000000  0.13324368  1
  Li  Li1  2  0.00000000  0.00000000  0.62219041  1
  Li  Li2  2  0.00000000  0.50000000  0.20839344  1
  P  P3  2  0.00000000  0.50000000  0.74856004  1
  S  S4  4  0.17087413  0.26823344  0.90079990  1
  S  S5  4  0.23767647  0.67405443  0.60454537  1
