# generated using pymatgen
data_Li3PS4
_symmetry_space_group_name_H-M   P2_12_12
_cell_length_a   5.86595757
_cell_length_b   5.87070709
_cell_length_c   7.62637685
_cell_angle_alpha   90.00000000
_cell_angle_beta   90.00000000
_cell_angle_gamma   90.00000000
_symmetry_Int_Tables_number   18
_chemical_formula_structural   Li3PS4
_chemical_formula_sum   'Li6 P2 S8'
_cell_volume   262.63197010
_cell_formula_units_Z   2
loop_
 _symmetry_equiv_pos_site_id
 _symmetry_equiv_pos_as_xyz
  1  'x, y, z'
  2  '-x, -y, z'
  3  'x+1/2, -y+1/2, -z'
  4  '-x+1/2, y+1/2, -z'
loop_
 _atom_site_type_symbol
 _atom_site_label
 _atom_site_symmetry_multiplicity
 _atom_site_fract_x
 _atom_site_fract_y
 _atom_site_fract_z
 _atom_site_occupancy
  Li  Li0  2  0.00000000  0.00000000  0.40211382  1
  Li  Li1  2  0.00000000  0.00000000  0.87407698  1
  Li  Li2  2  0.00000000  0.50000000  0.18815951  1
  P  P3  2  0.00000000  0.50000000  0.75159581  1
  S  S4  4  0.17773667  0.73964279  0.61360803  1
  S  S5  4  0.23113275  0.32954075  0.90143332  1
