# generated using pymatgen
data_Li3PS4
_symmetry_space_group_name_H-M   P2_1
_cell_length_a   6.10535754
_cell_length_b   6.91697716
_cell_length_c   6.46553946
_cell_angle_alpha   90.00000000
_cell_angle_beta   92.69190273
_cell_angle_gamma   90.00000000
_symmetry_Int_Tables_number   4
_chemical_formula_structural   Li3PS4
_chemical_formula_sum   'Li6 P2 S8'
_cell_volume   272.74243363
_cell_formula_units_Z   2
loop_
 _symmetry_equiv_pos_site_id
 _symmetry_equiv_pos_as_xyz
  1  'x, y, z'
  2  '-x, y+1/2, -z'
loop_
 _atom_site_type_symbol
 _atom_site_label
 _atom_site_symmetry_multiplicity
 _atom_site_fract_x
 _atom_site_fract_y
 _atom_site_fract_z
 _atom_site_occupancy
  Li  Li0  2  0.19920825  0.77456720  0.69281014  1
  Li  Li1  2  0.22393964  0.26569102  0.68728577  1
  Li  Li2  2  0.27207785  0.99261926  0.11616822  1
  P  P3  2  0.25447915  0.43192635  0.23903450  1
  S  S4  2  0.04517847  0.53413412  0.45318776  1
  S  S5  2  0.04944109  0.29927614  0.02234692  1
  S  S6  2  0.43266451  0.21977728  0.38438229  1
  S  S7  2  0.44722400  0.63273811  0.11086632  1
