# generated using pymatgen
data_Li3PS4
_symmetry_space_group_name_H-M   P2_1
_cell_length_a   6.03473529
_cell_length_b   6.97060243
_cell_length_c   6.44602839
_cell_angle_alpha   90.00000000
_cell_angle_beta   93.93876125
_cell_angle_gamma   90.00000000
_symmetry_Int_Tables_number   4
_chemical_formula_structural   Li3PS4
_chemical_formula_sum   'Li6 P2 S8'
_cell_volume   270.51649470
_cell_formula_units_Z   2
loop_
 _symmetry_equiv_pos_site_id
 _symmetry_equiv_pos_as_xyz
  1  'x, y, z'
  2  '-x, y+1/2, -z'
loop_
 _atom_site_type_symbol
 _atom_site_label
 _atom_site_symmetry_multiplicity
 _atom_site_fract_x
 _atom_site_fract_y
 _atom_site_fract_z
 _atom_site_occupancy
  Li  Li0  2  0.22868375  0.37653199  0.87601603  1
  Li  Li1  2  0.27917070  0.09271225  0.30773090  1
  Li  Li2  2  0.29392454  0.57604094  0.30985128  1
  P  P3  2  0.24534992  0.93571689  0.75966817  1
  S  S4  2  0.04788105  0.74373587  0.89421845  1
  S  S5  2  0.06851575  0.14614488  0.60821802  1
  S  S6  2  0.44998005  0.82392250  0.54746550  1
  S  S7  2  0.45731338  0.07036761  0.97468935  1
