# generated using pymatgen
data_Li3PS4
_symmetry_space_group_name_H-M   P2_1
_cell_length_a   6.21064858
_cell_length_b   6.36595493
_cell_length_c   6.90997277
_cell_angle_alpha   90.00000000
_cell_angle_beta   90.74739879
_cell_angle_gamma   90.00000000
_symmetry_Int_Tables_number   4
_chemical_formula_structural   Li3PS4
_chemical_formula_sum   'Li6 P2 S8'
_cell_volume   273.17433867
_cell_formula_units_Z   2
loop_
 _symmetry_equiv_pos_site_id
 _symmetry_equiv_pos_as_xyz
  1  'x, y, z'
  2  '-x, y+1/2, -z'
loop_
 _atom_site_type_symbol
 _atom_site_label
 _atom_site_symmetry_multiplicity
 _atom_site_fract_x
 _atom_site_fract_y
 _atom_site_fract_z
 _atom_site_occupancy
  Li  Li0  2  0.23630986  0.34599268  0.31209076  1
  Li  Li1  2  0.26094219  0.94655507  0.05703805  1
  Li  Li2  2  0.27220168  0.88726202  0.57422296  1
  P  P3  2  0.24795038  0.44039254  0.76212384  1
  S  S4  2  0.03755187  0.57691120  0.56915811  1
  S  S5  2  0.08310405  0.28403785  0.96679216  1
  S  S6  2  0.43817371  0.67670643  0.86821604  1
  S  S7  2  0.44475146  0.23696161  0.62023825  1
