# generated using pymatgen
data_Li3PS4
_symmetry_space_group_name_H-M   P2_1
_cell_length_a   6.18296155
_cell_length_b   6.47867315
_cell_length_c   6.87549696
_cell_angle_alpha   90.00000000
_cell_angle_beta   92.27398673
_cell_angle_gamma   90.00000000
_symmetry_Int_Tables_number   4
_chemical_formula_structural   Li3PS4
_chemical_formula_sum   'Li6 P2 S8'
_cell_volume   275.19755707
_cell_formula_units_Z   2
loop_
 _symmetry_equiv_pos_site_id
 _symmetry_equiv_pos_as_xyz
  1  'x, y, z'
  2  '-x, y+1/2, -z'
loop_
 _atom_site_type_symbol
 _atom_site_label
 _atom_site_symmetry_multiplicity
 _atom_site_fract_x
 _atom_site_fract_y
 _atom_site_fract_z
 _atom_site_occupancy
  Li  Li0  2  0.22615243  0.72754768  0.46481726  1
  Li  Li1  2  0.22711717  0.58296295  0.02674830  1
  Li  Li2  2  0.26313077  0.04403297  0.83954849  1
  P  P3  2  0.25774551  0.16817571  0.28044969  1
  S  S4  2  0.04929130  0.39761253  0.34922306  1
  S  S5  2  0.08286812  0.93270864  0.15106132  1
  S  S6  2  0.42435451  0.05586098  0.51362522  1
  S  S7  2  0.45748130  0.28326261  0.07451557  1
