# generated using pymatgen
data_Li3PS4
_symmetry_space_group_name_H-M   P2_1
_cell_length_a   5.93911771
_cell_length_b   6.97569162
_cell_length_c   6.68181381
_cell_angle_alpha   90.00000000
_cell_angle_beta   91.71836912
_cell_angle_gamma   90.00000000
_symmetry_Int_Tables_number   4
_chemical_formula_structural   Li3PS4
_chemical_formula_sum   'Li6 P2 S8'
_cell_volume   276.69940708
_cell_formula_units_Z   2
loop_
 _symmetry_equiv_pos_site_id
 _symmetry_equiv_pos_as_xyz
  1  'x, y, z'
  2  '-x, y+1/2, -z'
loop_
 _atom_site_type_symbol
 _atom_site_label
 _atom_site_symmetry_multiplicity
 _atom_site_fract_x
 _atom_site_fract_y
 _atom_site_fract_z
 _atom_site_occupancy
  Li  Li0  2  0.22743809  0.99881463  0.39553011  1
  Li  Li1  2  0.27565078  0.73558300  0.82180237  1
  Li  Li2  2  0.31042618  0.23355977  0.81213045  1
  P  P3  2  0.24427634  0.56679641  0.26120860  1
  S  S4  2  0.04634936  0.36160666  0.37606837  1
  S  S5  2  0.06849984  0.78411239  0.12673535  1
  S  S6  2  0.45105325  0.69144970  0.47628519  1
  S  S7  2  0.46142590  0.47216999  0.04845219  1
