# generated using pymatgen
data_Li3PS4
_symmetry_space_group_name_H-M   P2_1
_cell_length_a   6.04326856
_cell_length_b   6.75175870
_cell_length_c   6.70809229
_cell_angle_alpha   90.00000000
_cell_angle_beta   91.41374956
_cell_angle_gamma   90.00000000
_symmetry_Int_Tables_number   4
_chemical_formula_structural   Li3PS4
_chemical_formula_sum   'Li6 P2 S8'
_cell_volume   273.62490016
_cell_formula_units_Z   2
loop_
 _symmetry_equiv_pos_site_id
 _symmetry_equiv_pos_as_xyz
  1  'x, y, z'
  2  '-x, y+1/2, -z'
loop_
 _atom_site_type_symbol
 _atom_site_label
 _atom_site_symmetry_multiplicity
 _atom_site_fract_x
 _atom_site_fract_y
 _atom_site_fract_z
 _atom_site_occupancy
  Li  Li0  2  0.22760448  0.00171400  0.39022398  1
  Li  Li1  2  0.27468855  0.71406774  0.81770374  1
  Li  Li2  2  0.29834798  0.20065424  0.81584803  1
  P  P3  2  0.24328175  0.55829224  0.25978740  1
  S  S4  2  0.04034250  0.35450431  0.37974234  1
  S  S5  2  0.07156022  0.78097848  0.12243969  1
  S  S6  2  0.44906897  0.68928574  0.46873997  1
  S  S7  2  0.45191534  0.44673400  0.05052741  1
