# generated using pymatgen
data_Li3PS4
_symmetry_space_group_name_H-M   P2_1
_cell_length_a   6.03103637
_cell_length_b   6.75253202
_cell_length_c   6.69448035
_cell_angle_alpha   90.00000000
_cell_angle_beta   91.32150621
_cell_angle_gamma   90.00000000
_symmetry_Int_Tables_number   4
_chemical_formula_structural   Li3PS4
_chemical_formula_sum   'Li6 P2 S8'
_cell_volume   272.55863370
_cell_formula_units_Z   2
loop_
 _symmetry_equiv_pos_site_id
 _symmetry_equiv_pos_as_xyz
  1  'x, y, z'
  2  '-x, y+1/2, -z'
loop_
 _atom_site_type_symbol
 _atom_site_label
 _atom_site_symmetry_multiplicity
 _atom_site_fract_x
 _atom_site_fract_y
 _atom_site_fract_z
 _atom_site_occupancy
  Li  Li0  2  0.20257525  0.83233400  0.18176961  1
  Li  Li1  2  0.22459920  0.31936858  0.18631736  1
  Li  Li2  2  0.27218795  0.02691896  0.61224791  1
  P  P3  2  0.25626842  0.47185571  0.74084763  1
  S  S4  2  0.04740527  0.58629502  0.94892530  1
  S  S5  2  0.04949434  0.33880800  0.53321631  1
  S  S6  2  0.42760846  0.25051362  0.88072084  1
  S  S7  2  0.45961282  0.67393412  0.61767477  1
