# generated using pymatgen
data_Li3PS4
_symmetry_space_group_name_H-M   P2_1
_cell_length_a   6.01718579
_cell_length_b   6.79683338
_cell_length_c   6.70059643
_cell_angle_alpha   90.00000000
_cell_angle_beta   91.24714007
_cell_angle_gamma   90.00000000
_symmetry_Int_Tables_number   4
_chemical_formula_structural   Li3PS4
_chemical_formula_sum   'Li6 P2 S8'
_cell_volume   273.97479834
_cell_formula_units_Z   2
loop_
 _symmetry_equiv_pos_site_id
 _symmetry_equiv_pos_as_xyz
  1  'x, y, z'
  2  '-x, y+1/2, -z'
loop_
 _atom_site_type_symbol
 _atom_site_label
 _atom_site_symmetry_multiplicity
 _atom_site_fract_x
 _atom_site_fract_y
 _atom_site_fract_z
 _atom_site_occupancy
  Li  Li0  2  0.20111021  0.13298015  0.18113193  1
  Li  Li1  2  0.22360522  0.64578610  0.18297120  1
  Li  Li2  2  0.27247795  0.93344860  0.60891368  1
  P  P3  2  0.25645084  0.49075047  0.74070213  1
  S  S4  2  0.04682226  0.37988494  0.95050719  1
  S  S5  2  0.04937694  0.62108014  0.53195506  1
  S  S6  2  0.42769119  0.71283995  0.87736906  1
  S  S7  2  0.45990951  0.28757165  0.62124112  1
