# generated using pymatgen
data_Li3PS4
_symmetry_space_group_name_H-M   P2_1
_cell_length_a   6.00008822
_cell_length_b   5.97196913
_cell_length_c   7.34828058
_cell_angle_alpha   90.00000000
_cell_angle_beta   91.11200256
_cell_angle_gamma   90.00000000
_symmetry_Int_Tables_number   4
_chemical_formula_structural   Li3PS4
_chemical_formula_sum   'Li6 P2 S8'
_cell_volume   263.25651131
_cell_formula_units_Z   2
loop_
 _symmetry_equiv_pos_site_id
 _symmetry_equiv_pos_as_xyz
  1  'x, y, z'
  2  '-x, y+1/2, -z'
loop_
 _atom_site_type_symbol
 _atom_site_label
 _atom_site_symmetry_multiplicity
 _atom_site_fract_x
 _atom_site_fract_y
 _atom_site_fract_z
 _atom_site_occupancy
  Li  Li0  2  0.18436472  0.97671828  0.24473901  1
  Li  Li1  2  0.26358756  0.47376316  0.11152923  1
  Li  Li2  2  0.28097927  0.49314948  0.60345241  1
  P  P3  2  0.25245211  0.96813077  0.75124502  1
  S  S4  2  0.02840065  0.80533188  0.58491016  1
  S  S5  2  0.07650981  0.17829890  0.91524258  1
  S  S6  2  0.42578278  0.72297339  0.88437317  1
  S  S7  2  0.48437566  0.15537160  0.62065419  1
