# generated using pymatgen
data_Li3PS4
_symmetry_space_group_name_H-M   P2_1
_cell_length_a   6.04334102
_cell_length_b   6.79830032
_cell_length_c   6.69244811
_cell_angle_alpha   90.00000000
_cell_angle_beta   91.74313479
_cell_angle_gamma   90.00000000
_symmetry_Int_Tables_number   4
_chemical_formula_structural   Li3PS4
_chemical_formula_sum   'Li6 P2 S8'
_cell_volume   274.82829338
_cell_formula_units_Z   2
loop_
 _symmetry_equiv_pos_site_id
 _symmetry_equiv_pos_as_xyz
  1  'x, y, z'
  2  '-x, y+1/2, -z'
loop_
 _atom_site_type_symbol
 _atom_site_label
 _atom_site_symmetry_multiplicity
 _atom_site_fract_x
 _atom_site_fract_y
 _atom_site_fract_z
 _atom_site_occupancy
  Li  Li0  2  0.19368317  0.56608126  0.18907665  1
  Li  Li1  2  0.22693123  0.07062968  0.17894085  1
  Li  Li2  2  0.27427217  0.34414118  0.60524079  1
  P  P3  2  0.25655528  0.90531997  0.73882141  1
  S  S4  2  0.04357593  0.80496913  0.94944451  1
  S  S5  2  0.05264274  0.03401243  0.52569016  1
  S  S6  2  0.43198729  0.12597233  0.87455603  1
  S  S7  2  0.45421704  0.69786425  0.62206643  1
