# generated using pymatgen
data_Li3PS4
_symmetry_space_group_name_H-M   P2_1
_cell_length_a   6.03670519
_cell_length_b   6.85628095
_cell_length_c   6.61306984
_cell_angle_alpha   90.00000000
_cell_angle_beta   91.35970225
_cell_angle_gamma   90.00000000
_symmetry_Int_Tables_number   4
_chemical_formula_structural   Li3PS4
_chemical_formula_sum   'Li6 P2 S8'
_cell_volume   273.63357130
_cell_formula_units_Z   2
loop_
 _symmetry_equiv_pos_site_id
 _symmetry_equiv_pos_as_xyz
  1  'x, y, z'
  2  '-x, y+1/2, -z'
loop_
 _atom_site_type_symbol
 _atom_site_label
 _atom_site_symmetry_multiplicity
 _atom_site_fract_x
 _atom_site_fract_y
 _atom_site_fract_z
 _atom_site_occupancy
  Li  Li0  2  0.19986717  0.13799971  0.18150899  1
  Li  Li1  2  0.22292289  0.65313239  0.18541373  1
  Li  Li2  2  0.27132171  0.93177814  0.61016017  1
  P  P3  2  0.25549242  0.49190340  0.74095494  1
  S  S4  2  0.04536777  0.38500801  0.95402686  1
  S  S5  2  0.04836365  0.62204120  0.53004155  1
  S  S6  2  0.42909623  0.71067682  0.87858454  1
  S  S7  2  0.45450265  0.28877236  0.61879946  1
