# generated using pymatgen
data_Li3PS4
_symmetry_space_group_name_H-M   P2_1
_cell_length_a   5.97199270
_cell_length_b   5.90767961
_cell_length_c   7.43143508
_cell_angle_alpha   90.00000000
_cell_angle_beta   90.62003559
_cell_angle_gamma   90.00000000
_symmetry_Int_Tables_number   4
_chemical_formula_structural   Li3PS4
_chemical_formula_sum   'Li6 P2 S8'
_cell_volume   262.17028190
_cell_formula_units_Z   2
loop_
 _symmetry_equiv_pos_site_id
 _symmetry_equiv_pos_as_xyz
  1  'x, y, z'
  2  '-x, y+1/2, -z'
loop_
 _atom_site_type_symbol
 _atom_site_label
 _atom_site_symmetry_multiplicity
 _atom_site_fract_x
 _atom_site_fract_y
 _atom_site_fract_z
 _atom_site_occupancy
  Li  Li0  2  0.24328327  0.94069923  0.86161999  1
  Li  Li1  2  0.25155389  0.93121377  0.38736815  1
  Li  Li2  2  0.26943753  0.40833298  0.18258774  1
  P  P3  2  0.25261423  0.43706972  0.74845462  1
  S  S4  2  0.02944628  0.60497203  0.90635614  1
  S  S5  2  0.07735142  0.20390752  0.60323025  1
  S  S6  2  0.42878149  0.67760764  0.61141204  1
  S  S7  2  0.48329649  0.26431336  0.90007938  1
