# generated using pymatgen
data_Li3PS4
_symmetry_space_group_name_H-M   P2_1
_cell_length_a   6.00185030
_cell_length_b   6.82066717
_cell_length_c   6.69036527
_cell_angle_alpha   90.00000000
_cell_angle_beta   91.86248548
_cell_angle_gamma   90.00000000
_symmetry_Int_Tables_number   4
_chemical_formula_structural   Li3PS4
_chemical_formula_sum   'Li6 P2 S8'
_cell_volume   273.73627418
_cell_formula_units_Z   2
loop_
 _symmetry_equiv_pos_site_id
 _symmetry_equiv_pos_as_xyz
  1  'x, y, z'
  2  '-x, y+1/2, -z'
loop_
 _atom_site_type_symbol
 _atom_site_label
 _atom_site_symmetry_multiplicity
 _atom_site_fract_x
 _atom_site_fract_y
 _atom_site_fract_z
 _atom_site_occupancy
  Li  Li0  2  0.22801755  0.09319826  0.88795928  1
  Li  Li1  2  0.27545287  0.38148602  0.31476688  1
  Li  Li2  2  0.29782343  0.89555174  0.31780260  1
  P  P3  2  0.24379778  0.53604873  0.75952255  1
  S  S4  2  0.04058053  0.73652255  0.88192549  1
  S  S5  2  0.07176623  0.31586127  0.61958053  1
  S  S6  2  0.45220087  0.64854225  0.55093335  1
  S  S7  2  0.45228498  0.40416099  0.96817936  1
