# generated using pymatgen
data_Li3PS4
_symmetry_space_group_name_H-M   P2_1
_cell_length_a   6.06650648
_cell_length_b   6.69140566
_cell_length_c   6.66413036
_cell_angle_alpha   90.00000000
_cell_angle_beta   92.04325949
_cell_angle_gamma   90.00000000
_symmetry_Int_Tables_number   4
_chemical_formula_structural   Li3PS4
_chemical_formula_sum   'Li6 P2 S8'
_cell_volume   270.34808247
_cell_formula_units_Z   2
loop_
 _symmetry_equiv_pos_site_id
 _symmetry_equiv_pos_as_xyz
  1  'x, y, z'
  2  '-x, y+1/2, -z'
loop_
 _atom_site_type_symbol
 _atom_site_label
 _atom_site_symmetry_multiplicity
 _atom_site_fract_x
 _atom_site_fract_y
 _atom_site_fract_z
 _atom_site_occupancy
  Li  Li0  2  0.20963981  0.79974243  0.18366980  1
  Li  Li1  2  0.22404666  0.28131065  0.18845638  1
  Li  Li2  2  0.27260596  0.97853981  0.61632265  1
  P  P3  2  0.25632252  0.42722942  0.74119328  1
  S  S4  2  0.04843184  0.29143951  0.53398611  1
  S  S5  2  0.05254443  0.54905892  0.94766333  1
  S  S6  2  0.42659818  0.20453632  0.88467888  1
  S  S7  2  0.46220462  0.62618097  0.61520498  1
