# generated using pymatgen
data_Li3PS4
_symmetry_space_group_name_H-M   P2_1
_cell_length_a   6.07492105
_cell_length_b   6.76153323
_cell_length_c   6.66327365
_cell_angle_alpha   90.00000000
_cell_angle_beta   91.66595480
_cell_angle_gamma   90.00000000
_symmetry_Int_Tables_number   4
_chemical_formula_structural   Li3PS4
_chemical_formula_sum   'Li6 P2 S8'
_cell_volume   273.58347691
_cell_formula_units_Z   2
loop_
 _symmetry_equiv_pos_site_id
 _symmetry_equiv_pos_as_xyz
  1  'x, y, z'
  2  '-x, y+1/2, -z'
loop_
 _atom_site_type_symbol
 _atom_site_label
 _atom_site_symmetry_multiplicity
 _atom_site_fract_x
 _atom_site_fract_y
 _atom_site_fract_z
 _atom_site_occupancy
  Li  Li0  2  0.19951125  0.67216680  0.68751337  1
  Li  Li1  2  0.22618279  0.18005396  0.68454429  1
  Li  Li2  2  0.27337791  0.46300626  0.11048516  1
  P  P3  2  0.25593630  0.02038695  0.23981345  1
  S  S4  2  0.04548402  0.91304392  0.44929294  1
  S  S5  2  0.05182023  0.15222424  0.02879660  1
  S  S6  2  0.42962417  0.24069637  0.37919908  1
  S  S7  2  0.45458649  0.81529575  0.11794393  1
