# generated using pymatgen
data_Li3PS4
_symmetry_space_group_name_H-M   P2_1
_cell_length_a   6.02001360
_cell_length_b   6.86754295
_cell_length_c   6.63461553
_cell_angle_alpha   90.00000000
_cell_angle_beta   91.20954478
_cell_angle_gamma   90.00000000
_symmetry_Int_Tables_number   4
_chemical_formula_structural   Li3PS4
_chemical_formula_sum   'Li6 P2 S8'
_cell_volume   274.23181509
_cell_formula_units_Z   2
loop_
 _symmetry_equiv_pos_site_id
 _symmetry_equiv_pos_as_xyz
  1  'x, y, z'
  2  '-x, y+1/2, -z'
loop_
 _atom_site_type_symbol
 _atom_site_label
 _atom_site_symmetry_multiplicity
 _atom_site_fract_x
 _atom_site_fract_y
 _atom_site_fract_z
 _atom_site_occupancy
  Li  Li0  2  0.22828626  0.98309066  0.89202813  1
  Li  Li1  2  0.27586520  0.71045965  0.31908479  1
  Li  Li2  2  0.30537099  0.20294228  0.31330807  1
  P  P3  2  0.24396343  0.54492069  0.76056465  1
  S  S4  2  0.04559039  0.33914484  0.87871553  1
  S  S5  2  0.06935319  0.76362587  0.62457381  1
  S  S6  2  0.44884052  0.67287078  0.97392395  1
  S  S7  2  0.45807381  0.44412859  0.54744665  1
