# generated using pymatgen
data_Li3PS4
_symmetry_space_group_name_H-M   P2_1
_cell_length_a   5.92271695
_cell_length_b   5.93459172
_cell_length_c   7.45006600
_cell_angle_alpha   90.00000000
_cell_angle_beta   90.46815714
_cell_angle_gamma   90.00000000
_symmetry_Int_Tables_number   4
_chemical_formula_structural   Li3PS4
_chemical_formula_sum   'Li6 P2 S8'
_cell_volume   261.85293509
_cell_formula_units_Z   2
loop_
 _symmetry_equiv_pos_site_id
 _symmetry_equiv_pos_as_xyz
  1  'x, y, z'
  2  '-x, y+1/2, -z'
loop_
 _atom_site_type_symbol
 _atom_site_label
 _atom_site_symmetry_multiplicity
 _atom_site_fract_x
 _atom_site_fract_y
 _atom_site_fract_z
 _atom_site_occupancy
  Li  Li0  2  0.23625960  0.56643764  0.88959695  1
  Li  Li1  2  0.24056601  0.56562322  0.37301948  1
  Li  Li2  2  0.28662757  0.08060060  0.29493276  1
  P  P3  2  0.25166105  0.05247001  0.75006180  1
  S  S4  2  0.01909325  0.23245922  0.88951391  1
  S  S5  2  0.07675779  0.81721261  0.60582951  1
  S  S6  2  0.42066824  0.27697009  0.59165385  1
  S  S7  2  0.49032127  0.88140146  0.89577345  1
