# generated using pymatgen
data_Li3PS4
_symmetry_space_group_name_H-M   P2_1
_cell_length_a   6.43133048
_cell_length_b   6.12336634
_cell_length_c   7.24434926
_cell_angle_alpha   90.00000000
_cell_angle_beta   91.00717762
_cell_angle_gamma   90.00000000
_symmetry_Int_Tables_number   4
_chemical_formula_structural   Li3PS4
_chemical_formula_sum   'Li6 P2 S8'
_cell_volume   285.24848463
_cell_formula_units_Z   2
loop_
 _symmetry_equiv_pos_site_id
 _symmetry_equiv_pos_as_xyz
  1  'x, y, z'
  2  '-x, y+1/2, -z'
loop_
 _atom_site_type_symbol
 _atom_site_label
 _atom_site_symmetry_multiplicity
 _atom_site_fract_x
 _atom_site_fract_y
 _atom_site_fract_z
 _atom_site_occupancy
  Li  Li0  2  0.14366299  0.93935672  0.75345974  1
  Li  Li1  2  0.31174011  0.46292152  0.50510526  1
  Li  Li2  2  0.31883775  0.45107601  0.98732100  1
  P  P3  2  0.18560576  0.94746277  0.25384171  1
  S  S4  2  0.10855794  0.32870332  0.74315998  1
  S  S5  2  0.18891434  0.27954787  0.24497584  1
  S  S6  2  0.33417202  0.83297180  0.02812568  1
  S  S7  2  0.34019055  0.84536329  0.48549500  1
