# generated using pymatgen
data_Li3PS4
_symmetry_space_group_name_H-M   P2_1
_cell_length_a   5.94599933
_cell_length_b   5.91330874
_cell_length_c   7.50558845
_cell_angle_alpha   90.00000000
_cell_angle_beta   90.57903339
_cell_angle_gamma   90.00000000
_symmetry_Int_Tables_number   4
_chemical_formula_structural   Li3PS4
_chemical_formula_sum   'Li6 P2 S8'
_cell_volume   263.88699054
_cell_formula_units_Z   2
loop_
 _symmetry_equiv_pos_site_id
 _symmetry_equiv_pos_as_xyz
  1  'x, y, z'
  2  '-x, y+1/2, -z'
loop_
 _atom_site_type_symbol
 _atom_site_label
 _atom_site_symmetry_multiplicity
 _atom_site_fract_x
 _atom_site_fract_y
 _atom_site_fract_z
 _atom_site_occupancy
  Li  Li0  2  0.22660321  0.01789875  0.31376165  1
  Li  Li1  2  0.24926248  0.49860325  0.10172635  1
  Li  Li2  2  0.25869520  0.49294056  0.62514196  1
  P  P3  2  0.24922283  0.99621618  0.75005413  1
  S  S4  2  0.02002269  0.16859435  0.59760283  1
  S  S5  2  0.07140013  0.75802748  0.88737720  1
  S  S6  2  0.42504670  0.23091774  0.89201726  1
  S  S7  2  0.47500196  0.82615861  0.59677324  1
