# generated using pymatgen
data_Li3PS4
_symmetry_space_group_name_H-M   P2_1
_cell_length_a   6.06276419
_cell_length_b   6.79221807
_cell_length_c   6.66132655
_cell_angle_alpha   90.00000000
_cell_angle_beta   91.44428490
_cell_angle_gamma   90.00000000
_symmetry_Int_Tables_number   4
_chemical_formula_structural   Li3PS4
_chemical_formula_sum   'Li6 P2 S8'
_cell_volume   274.22372608
_cell_formula_units_Z   2
loop_
 _symmetry_equiv_pos_site_id
 _symmetry_equiv_pos_as_xyz
  1  'x, y, z'
  2  '-x, y+1/2, -z'
loop_
 _atom_site_type_symbol
 _atom_site_label
 _atom_site_symmetry_multiplicity
 _atom_site_fract_x
 _atom_site_fract_y
 _atom_site_fract_z
 _atom_site_occupancy
  Li  Li0  2  0.22733906  0.07141549  0.39164539  1
  Li  Li1  2  0.27346237  0.35103339  0.81627154  1
  Li  Li2  2  0.30229421  0.85853217  0.81423388  1
  P  P3  2  0.24439082  0.51244945  0.26040781  1
  S  S4  2  0.04582481  0.71801665  0.38075726  1
  S  S5  2  0.07038907  0.29244901  0.12264093  1
  S  S6  2  0.44826621  0.38172792  0.47194755  1
  S  S7  2  0.45628694  0.61779415  0.05003892  1
