# generated using pymatgen
data_Li3PS4
_symmetry_space_group_name_H-M   Pmn2_1
_cell_length_a   7.48577912
_cell_length_b   6.29592651
_cell_length_c   6.03608094
_cell_angle_alpha   90.00000000
_cell_angle_beta   90.00000000
_cell_angle_gamma   90.00000000
_symmetry_Int_Tables_number   31
_chemical_formula_structural   Li3PS4
_chemical_formula_sum   'Li6 P2 S8'
_cell_volume   284.47998285
_cell_formula_units_Z   2
loop_
 _symmetry_equiv_pos_site_id
 _symmetry_equiv_pos_as_xyz
  1  'x, y, z'
  2  '-x+1/2, -y, z+1/2'
  3  '-x, y, z'
  4  'x+1/2, -y, z+1/2'
loop_
 _atom_site_type_symbol
 _atom_site_label
 _atom_site_symmetry_multiplicity
 _atom_site_fract_x
 _atom_site_fract_y
 _atom_site_fract_z
 _atom_site_occupancy
  Li  Li0  4  0.24036348  0.31472526  0.61924136  1
  Li  Li1  2  0.00000000  0.15355447  0.10599061  1
  P  P2  2  0.00000000  0.81799131  0.61690642  1
  S  S3  4  0.22269722  0.66554486  0.50793203  1
  S  S4  2  0.00000000  0.12056700  0.50148932  1
  S  S5  2  0.00000000  0.80950781  0.95391441  1
