# generated using pymatgen
data_Li3PS4
_symmetry_space_group_name_H-M   P2_1
_cell_length_a   6.03151344
_cell_length_b   6.70380250
_cell_length_c   6.75868819
_cell_angle_alpha   90.00000000
_cell_angle_beta   91.68041439
_cell_angle_gamma   90.00000000
_symmetry_Int_Tables_number   4
_chemical_formula_structural   Li3PS4
_chemical_formula_sum   'Li6 P2 S8'
_cell_volume   273.16377803
_cell_formula_units_Z   2
loop_
 _symmetry_equiv_pos_site_id
 _symmetry_equiv_pos_as_xyz
  1  'x, y, z'
  2  '-x, y+1/2, -z'
loop_
 _atom_site_type_symbol
 _atom_site_label
 _atom_site_symmetry_multiplicity
 _atom_site_fract_x
 _atom_site_fract_y
 _atom_site_fract_z
 _atom_site_occupancy
  Li  Li0  2  0.19716035  0.17116859  0.18912234  1
  Li  Li1  2  0.22791085  0.67605721  0.17810588  1
  Li  Li2  2  0.27479905  0.95858587  0.60515378  1
  P  P3  2  0.25694213  0.51721658  0.73938528  1
  S  S4  2  0.04593627  0.41106731  0.94727472  1
  S  S5  2  0.05287631  0.64670171  0.52833048  1
  S  S6  2  0.43029077  0.74179565  0.87471665  1
  S  S7  2  0.45872287  0.30941853  0.62300723  1
