# generated using pymatgen
data_Li3PS4
_symmetry_space_group_name_H-M   P2_1
_cell_length_a   5.92878880
_cell_length_b   5.95209872
_cell_length_c   7.46609601
_cell_angle_alpha   90.00000000
_cell_angle_beta   90.09176469
_cell_angle_gamma   90.00000000
_symmetry_Int_Tables_number   4
_chemical_formula_structural   Li3PS4
_chemical_formula_sum   'Li6 P2 S8'
_cell_volume   263.46875508
_cell_formula_units_Z   2
loop_
 _symmetry_equiv_pos_site_id
 _symmetry_equiv_pos_as_xyz
  1  'x, y, z'
  2  '-x, y+1/2, -z'
loop_
 _atom_site_type_symbol
 _atom_site_label
 _atom_site_symmetry_multiplicity
 _atom_site_fract_x
 _atom_site_fract_y
 _atom_site_fract_z
 _atom_site_occupancy
  Li  Li0  2  0.24440956  0.58579512  0.87149738  1
  Li  Li1  2  0.24702016  0.59394436  0.39545510  1
  Li  Li2  2  0.27229864  0.07252162  0.81372720  1
  P  P3  2  0.25226417  0.09881756  0.25095348  1
  S  S4  2  0.02080379  0.92223076  0.39430327  1
  S  S5  2  0.07811753  0.32407534  0.09853190  1
  S  S6  2  0.42025331  0.86965183  0.09629567  1
  S  S7  2  0.49239275  0.27530499  0.38849581  1
