# generated using pymatgen
data_Li3PS4
_symmetry_space_group_name_H-M   P2_1
_cell_length_a   6.00643834
_cell_length_b   5.94729072
_cell_length_c   7.30112144
_cell_angle_alpha   90.00000000
_cell_angle_beta   90.43272298
_cell_angle_gamma   90.00000000
_symmetry_Int_Tables_number   4
_chemical_formula_structural   Li3PS4
_chemical_formula_sum   'Li6 P2 S8'
_cell_volume   260.80347736
_cell_formula_units_Z   2
loop_
 _symmetry_equiv_pos_site_id
 _symmetry_equiv_pos_as_xyz
  1  'x, y, z'
  2  '-x, y+1/2, -z'
loop_
 _atom_site_type_symbol
 _atom_site_label
 _atom_site_symmetry_multiplicity
 _atom_site_fract_x
 _atom_site_fract_y
 _atom_site_fract_z
 _atom_site_occupancy
  Li  Li0  2  0.23812052  0.53953127  0.86423200  1
  Li  Li1  2  0.24978853  0.54969298  0.37855334  1
  Li  Li2  2  0.27629601  0.06817607  0.19835174  1
  P  P3  2  0.24988782  0.04454462  0.74757139  1
  S  S4  2  0.02461717  0.87425721  0.90298246  1
  S  S5  2  0.07772611  0.27755875  0.60062220  1
  S  S6  2  0.42703234  0.80987866  0.60456822  1
  S  S7  2  0.47649758  0.21626420  0.90479173  1
