# generated using pymatgen
data_Li3PS4
_symmetry_space_group_name_H-M   P2_1
_cell_length_a   6.02430880
_cell_length_b   5.99530567
_cell_length_c   7.25108608
_cell_angle_alpha   90.00000000
_cell_angle_beta   90.81002349
_cell_angle_gamma   90.00000000
_symmetry_Int_Tables_number   4
_chemical_formula_structural   Li3PS4
_chemical_formula_sum   'Li6 P2 S8'
_cell_volume   261.86545675
_cell_formula_units_Z   2
loop_
 _symmetry_equiv_pos_site_id
 _symmetry_equiv_pos_as_xyz
  1  'x, y, z'
  2  '-x, y+1/2, -z'
loop_
 _atom_site_type_symbol
 _atom_site_label
 _atom_site_symmetry_multiplicity
 _atom_site_fract_x
 _atom_site_fract_y
 _atom_site_fract_z
 _atom_site_occupancy
  Li  Li0  2  0.22371046  0.09520779  0.38778384  1
  Li  Li1  2  0.23993204  0.07757050  0.88319442  1
  Li  Li2  2  0.30264380  0.57560309  0.74587467  1
  P  P3  2  0.24663791  0.57545217  0.24882690  1
  S  S4  2  0.01576125  0.75885818  0.38474084  1
  S  S5  2  0.07507441  0.33375257  0.11086665  1
  S  S6  2  0.42363830  0.78727676  0.08629718  1
  S  S7  2  0.46866308  0.41172093  0.41638642  1
