# generated using pymatgen
data_Li3PS4
_symmetry_space_group_name_H-M   P2_1
_cell_length_a   5.93002978
_cell_length_b   5.88601784
_cell_length_c   7.47445511
_cell_angle_alpha   90.00000000
_cell_angle_beta   90.44141256
_cell_angle_gamma   90.00000000
_symmetry_Int_Tables_number   4
_chemical_formula_structural   Li3PS4
_chemical_formula_sum   'Li6 P2 S8'
_cell_volume   260.88259041
_cell_formula_units_Z   2
loop_
 _symmetry_equiv_pos_site_id
 _symmetry_equiv_pos_as_xyz
  1  'x, y, z'
  2  '-x, y+1/2, -z'
loop_
 _atom_site_type_symbol
 _atom_site_label
 _atom_site_symmetry_multiplicity
 _atom_site_fract_x
 _atom_site_fract_y
 _atom_site_fract_z
 _atom_site_occupancy
  Li  Li0  2  0.24666425  0.45123591  0.86385097  1
  Li  Li1  2  0.24979555  0.45461428  0.38169934  1
  Li  Li2  2  0.25977586  0.96312653  0.18743121  1
  P  P3  2  0.25081389  0.95267217  0.74808442  1
  S  S4  2  0.02247492  0.78360422  0.90226286  1
  S  S5  2  0.07570014  0.19072315  0.60646615  1
  S  S6  2  0.42647916  0.71295059  0.60927076  1
  S  S7  2  0.48095905  0.12337388  0.90231615  1
