# generated using pymatgen
data_Li3PS4
_symmetry_space_group_name_H-M   P2_1
_cell_length_a   5.95815095
_cell_length_b   5.90273733
_cell_length_c   7.45801625
_cell_angle_alpha   90.00000000
_cell_angle_beta   90.73935098
_cell_angle_gamma   90.00000000
_symmetry_Int_Tables_number   4
_chemical_formula_structural   Li3PS4
_chemical_formula_sum   'Li6 P2 S8'
_cell_volume   262.27211898
_cell_formula_units_Z   2
loop_
 _symmetry_equiv_pos_site_id
 _symmetry_equiv_pos_as_xyz
  1  'x, y, z'
  2  '-x, y+1/2, -z'
loop_
 _atom_site_type_symbol
 _atom_site_label
 _atom_site_symmetry_multiplicity
 _atom_site_fract_x
 _atom_site_fract_y
 _atom_site_fract_z
 _atom_site_occupancy
  Li  Li0  2  0.24524615  0.13386904  0.86291412  1
  Li  Li1  2  0.25247835  0.14441053  0.38595194  1
  Li  Li2  2  0.27133082  0.67195678  0.18155431  1
  P  P3  2  0.25308849  0.63673927  0.74819728  1
  S  S4  2  0.03071301  0.46974665  0.90724717  1
  S  S5  2  0.07840827  0.86911968  0.60237505  1
  S  S6  2  0.42943170  0.39434524  0.61277544  1
  S  S7  2  0.48593392  0.80978654  0.89841921  1
