# generated using pymatgen
data_Li3PS4
_symmetry_space_group_name_H-M   P2_1
_cell_length_a   5.84247465
_cell_length_b   7.61826302
_cell_length_c   6.53227409
_cell_angle_alpha   90.00000000
_cell_angle_beta   90.39773535
_cell_angle_gamma   90.00000000
_symmetry_Int_Tables_number   4
_chemical_formula_structural   Li3PS4
_chemical_formula_sum   'Li6 P2 S8'
_cell_volume   290.74130460
_cell_formula_units_Z   2
loop_
 _symmetry_equiv_pos_site_id
 _symmetry_equiv_pos_as_xyz
  1  'x, y, z'
  2  '-x, y+1/2, -z'
loop_
 _atom_site_type_symbol
 _atom_site_label
 _atom_site_symmetry_multiplicity
 _atom_site_fract_x
 _atom_site_fract_y
 _atom_site_fract_z
 _atom_site_occupancy
  Li  Li0  2  0.19009088  0.35543199  0.63375865  1
  Li  Li1  2  0.19369194  0.61400854  0.18034614  1
  Li  Li2  2  0.39274932  0.07106658  0.15712571  1
  P  P3  2  0.33440282  0.85928451  0.67791855  1
  S  S4  2  0.20500640  0.64073417  0.81545618  1
  S  S5  2  0.22264370  0.07663295  0.82957989  1
  S  S6  2  0.22922557  0.86673452  0.38143168  1
  S  S7  2  0.31788771  0.34479041  0.29747040  1
