# generated using pymatgen
data_Li3PS4
_symmetry_space_group_name_H-M   Pmn2_1
_cell_length_a   7.48527516
_cell_length_b   6.33551124
_cell_length_c   6.03011269
_cell_angle_alpha   90.00000000
_cell_angle_beta   90.00000000
_cell_angle_gamma   90.00000000
_symmetry_Int_Tables_number   31
_chemical_formula_structural   Li3PS4
_chemical_formula_sum   'Li6 P2 S8'
_cell_volume   285.96630475
_cell_formula_units_Z   2
loop_
 _symmetry_equiv_pos_site_id
 _symmetry_equiv_pos_as_xyz
  1  'x, y, z'
  2  '-x+1/2, -y, z+1/2'
  3  '-x, y, z'
  4  'x+1/2, -y, z+1/2'
loop_
 _atom_site_type_symbol
 _atom_site_label
 _atom_site_symmetry_multiplicity
 _atom_site_fract_x
 _atom_site_fract_y
 _atom_site_fract_z
 _atom_site_occupancy
  Li  Li0  4  0.24259583  0.68868168  0.50731558  1
  Li  Li1  2  0.00000000  0.84512292  0.02452670  1
  P  P2  2  0.00000000  0.18285509  0.51177909  1
  S  S3  4  0.22432297  0.33544484  0.62140035  1
  S  S4  2  0.00000000  0.18853623  0.17425331  1
  S  S5  2  0.00000000  0.88247711  0.62889753  1
