# generated using pymatgen
data_Li3PS4
_symmetry_space_group_name_H-M   Pmn2_1
_cell_length_a   7.33496709
_cell_length_b   6.38888803
_cell_length_c   6.10465577
_cell_angle_alpha   90.00000000
_cell_angle_beta   90.00000000
_cell_angle_gamma   90.00000000
_symmetry_Int_Tables_number   31
_chemical_formula_structural   Li3PS4
_chemical_formula_sum   'Li6 P2 S8'
_cell_volume   286.07810885
_cell_formula_units_Z   2
loop_
 _symmetry_equiv_pos_site_id
 _symmetry_equiv_pos_as_xyz
  1  'x, y, z'
  2  '-x+1/2, -y, z+1/2'
  3  '-x, y, z'
  4  'x+1/2, -y, z+1/2'
loop_
 _atom_site_type_symbol
 _atom_site_label
 _atom_site_symmetry_multiplicity
 _atom_site_fract_x
 _atom_site_fract_y
 _atom_site_fract_z
 _atom_site_occupancy
  Li  Li0  4  0.24294234  0.81105000  0.06606175  1
  Li  Li1  2  0.00000000  0.64953768  0.58616811  1
  P  P2  2  0.00000000  0.31373091  0.07604939  1
  S  S3  4  0.22713873  0.16151543  0.18501413  1
  S  S4  2  0.00000000  0.31204199  0.74262120  1
  S  S5  2  0.00000000  0.61008233  0.19539762  1
