# generated using pymatgen
data_Li3PS4
_symmetry_space_group_name_H-M   P2_1
_cell_length_a   6.04072407
_cell_length_b   6.92866310
_cell_length_c   6.59653180
_cell_angle_alpha   90.00000000
_cell_angle_beta   92.38725484
_cell_angle_gamma   90.00000000
_symmetry_Int_Tables_number   4
_chemical_formula_structural   Li3PS4
_chemical_formula_sum   'Li6 P2 S8'
_cell_volume   275.85256377
_cell_formula_units_Z   2
loop_
 _symmetry_equiv_pos_site_id
 _symmetry_equiv_pos_as_xyz
  1  'x, y, z'
  2  '-x, y+1/2, -z'
loop_
 _atom_site_type_symbol
 _atom_site_label
 _atom_site_symmetry_multiplicity
 _atom_site_fract_x
 _atom_site_fract_y
 _atom_site_fract_z
 _atom_site_occupancy
  Li  Li0  2  0.22612281  0.34657920  0.38953223  1
  Li  Li1  2  0.27494230  0.07857566  0.81824066  1
  Li  Li2  2  0.30599927  0.57563977  0.80537231  1
  P  P3  2  0.24431240  0.90989889  0.26185297  1
  S  S4  2  0.04927278  0.70638558  0.38256221  1
  S  S5  2  0.06700406  0.12441996  0.12147946  1
  S  S6  2  0.44868029  0.03834305  0.47885929  1
  S  S7  2  0.45790450  0.81223761  0.04964111  1
