# generated using pymatgen
data_Li3PS4
_symmetry_space_group_name_H-M   P2_1
_cell_length_a   6.03600963
_cell_length_b   6.82894190
_cell_length_c   6.68029447
_cell_angle_alpha   90.00000000
_cell_angle_beta   91.51078952
_cell_angle_gamma   90.00000000
_symmetry_Int_Tables_number   4
_chemical_formula_structural   Li3PS4
_chemical_formula_sum   'Li6 P2 S8'
_cell_volume   275.26307162
_cell_formula_units_Z   2
loop_
 _symmetry_equiv_pos_site_id
 _symmetry_equiv_pos_as_xyz
  1  'x, y, z'
  2  '-x, y+1/2, -z'
loop_
 _atom_site_type_symbol
 _atom_site_label
 _atom_site_symmetry_multiplicity
 _atom_site_fract_x
 _atom_site_fract_y
 _atom_site_fract_z
 _atom_site_occupancy
  Li  Li0  2  0.22627506  0.95054087  0.89414226  1
  Li  Li1  2  0.27357524  0.67677540  0.32089155  1
  Li  Li2  2  0.30481611  0.17072493  0.31189659  1
  P  P3  2  0.24431792  0.51115978  0.76102952  1
  S  S4  2  0.04583662  0.30430194  0.87768144  1
  S  S5  2  0.06963025  0.73128018  0.62580959  1
  S  S6  2  0.44819832  0.63906862  0.97443169  1
  S  S7  2  0.45749047  0.41059662  0.54944079  1
