# generated using pymatgen
data_Li3PS4
_symmetry_space_group_name_H-M   Pmn2_1
_cell_length_a   7.48100405
_cell_length_b   6.34617113
_cell_length_c   6.03782655
_cell_angle_alpha   90.00000000
_cell_angle_beta   90.00000000
_cell_angle_gamma   90.00000000
_symmetry_Int_Tables_number   31
_chemical_formula_structural   Li3PS4
_chemical_formula_sum   'Li6 P2 S8'
_cell_volume   286.65023477
_cell_formula_units_Z   2
loop_
 _symmetry_equiv_pos_site_id
 _symmetry_equiv_pos_as_xyz
  1  'x, y, z'
  2  '-x+1/2, -y, z+1/2'
  3  '-x, y, z'
  4  'x+1/2, -y, z+1/2'
loop_
 _atom_site_type_symbol
 _atom_site_label
 _atom_site_symmetry_multiplicity
 _atom_site_fract_x
 _atom_site_fract_y
 _atom_site_fract_z
 _atom_site_occupancy
  Li  Li0  4  0.24206159  0.31319056  0.86375873  1
  Li  Li1  2  0.00000000  0.15418342  0.34786962  1
  P  P2  2  0.00000000  0.81646529  0.86117286  1
  S  S3  4  0.22589893  0.66391593  0.75366672  1
  S  S4  2  0.00000000  0.11605515  0.74370793  1
  S  S5  2  0.00000000  0.81144035  0.19834005  1
