# generated using pymatgen
data_Li3PS4
_symmetry_space_group_name_H-M   P2_1
_cell_length_a   6.34657838
_cell_length_b   5.99984223
_cell_length_c   7.54563866
_cell_angle_alpha   90.00000000
_cell_angle_beta   90.51908713
_cell_angle_gamma   90.00000000
_symmetry_Int_Tables_number   4
_chemical_formula_structural   Li3PS4
_chemical_formula_sum   'Li6 P2 S8'
_cell_volume   287.31457613
_cell_formula_units_Z   2
loop_
 _symmetry_equiv_pos_site_id
 _symmetry_equiv_pos_as_xyz
  1  'x, y, z'
  2  '-x, y+1/2, -z'
loop_
 _atom_site_type_symbol
 _atom_site_label
 _atom_site_symmetry_multiplicity
 _atom_site_fract_x
 _atom_site_fract_y
 _atom_site_fract_z
 _atom_site_occupancy
  Li  Li0  2  0.18678732  0.52854782  0.50945386  1
  Li  Li1  2  0.18913663  0.52090671  0.99352692  1
  Li  Li2  2  0.34609360  0.04154982  0.74531195  1
  P  P3  2  0.31600321  0.02633737  0.24670444  1
  S  S4  2  0.16544690  0.13255685  0.02320214  1
  S  S5  2  0.16631236  0.14102099  0.46615839  1
  S  S6  2  0.30911547  0.68708605  0.25164191  1
  S  S7  2  0.38382279  0.64333514  0.75338322  1
